<routes>
            <vType accel="1.0" decel="4.5" vClass= "passenger" id="standart_car" length="4.0" minGap="2.5" maxSpeed="13" sigma="0.5" color= "cyan" />
            <vType accel="1.0" decel="4.5" vClass= "bus" id="bus" length="8.0" minGap="2.5" maxSpeed="8" sigma="0.5" color= "red" />
            <vType accel="1.0" decel="4.5" vClass= "taxi" id="taxi" length="4.0" minGap="2.5" maxSpeed="13" sigma="0.5" color= "yellow" />
            

            
            <route id="sk1" edges="E20 E2 E19"/>
            <route id="sk2" edges="E20 E2 E32 E33 E13 E15 E16 E5 E35 E8"/>
            
            <route id="sd1" edges="E14 E7 E37 E11 E12 E1 E31 E19"/>
            <route id="sd2" edges="E14 E7 E37 E11 E12 E1 E21"/> 
            
            <route id="sb1" edges="E18 E3 E33 E13 E15 E16 E5 E35 E8"/>
            <route id="sb2" edges="E18 E3 E33 E30 E21"/>
            
            <route id="gk1" edges="E10 E4 E34 E9"/>
            <route id="gk2" edges="E10 E4 E11 E12 E1 E21"/>
            <route id="gk3" edges="E10 E4 E34 E35 E8"/>
            
            <route id="gb1" edges="E18 E3 E33 E13 E15 E16 E5 E35 E8"/>
            <route id="gb2" edges="E20 E2 E32 E33 E13 E15 E16 E5 E9"/>
            <route id="gb3" edges="E20 E2 E32 E33 E13 E15 E16 E5 E35 E36 E0"/>
            
            <route id="gg1" edges="E17 E6 E8"/>
            <route id="gg2" edges="E17 E6 E36 E0"/>
            <route id="gg3" edges="E17 E6 E36 E37 E11 E12 E1 E31 E19"/>
            
            <route id="gd1" edges="E14 E7 E37 E11 E12 E1 E21"/>          
            <route id="gd2" edges="E14 E7 E37 E34 E9"/>
            <route id="gd3" edges="E14 E7 E0"/>
    <vehicle id="car_sb1_0" type="standart_car" route="sb1" depart="37.0" departLane="random" departSpeed="8" />
    <vehicle id="taxi_gg2_1" type="taxi" route="gg2" depart="78.0" departLane="random" departSpeed="8" />
    <vehicle id="car_sk1_2" type="standart_car" route="sk1" depart="92.0" departLane="random" departSpeed="8" />
    <vehicle id="taxi_sb2_3" type="taxi" route="sb2" depart="93.0" departLane="random" departSpeed="8" />
    <vehicle id="bus_sb1_4" type="bus" route="sb1" depart="100.0" departLane="random" departSpeed="8" />
    <vehicle id="car_sd1_5" type="standart_car" route="sd1" depart="131.0" departLane="random" departSpeed="8" />
    <vehicle id="car_sb1_6" type="standart_car" route="sb1" depart="145.0" departLane="random" departSpeed="8" />
    <vehicle id="car_sk1_7" type="standart_car" route="sk1" depart="148.0" departLane="random" departSpeed="8" />
    <vehicle id="bus_sb1_8" type="bus" route="sb1" depart="165.0" departLane="random" departSpeed="8" />
    <vehicle id="car_sb1_9" type="standart_car" route="sb1" depart="226.0" departLane="random" departSpeed="8" />
    <vehicle id="car_gg1_10" type="standart_car" route="gg1" depart="227.0" departLane="random" departSpeed="8" />
    <vehicle id="bus_sd1_11" type="bus" route="sd1" depart="230.0" departLane="random" departSpeed="8" />
    <vehicle id="car_gk1_12" type="standart_car" route="gk1" depart="233.0" departLane="random" departSpeed="8" />
    <vehicle id="car_sb2_13" type="standart_car" route="sb2" depart="246.0" departLane="random" departSpeed="8" />
    <vehicle id="car_gk1_14" type="standart_car" route="gk1" depart="258.0" departLane="random" departSpeed="8" />
    <vehicle id="bus_sk2_15" type="bus" route="sk2" depart="266.0" departLane="random" departSpeed="8" />
    <vehicle id="bus_sb2_16" type="bus" route="sb2" depart="267.0" departLane="random" departSpeed="8" />
    <vehicle id="car_sk1_17" type="standart_car" route="sk1" depart="268.0" departLane="random" departSpeed="8" />
    <vehicle id="car_sb1_18" type="standart_car" route="sb1" depart="283.0" departLane="random" departSpeed="8" />
    <vehicle id="car_gd3_19" type="standart_car" route="gd3" depart="289.0" departLane="random" departSpeed="8" />
    <vehicle id="car_gk2_20" type="standart_car" route="gk2" depart="293.0" departLane="random" departSpeed="8" />
    <vehicle id="car_sk2_21" type="standart_car" route="sk2" depart="296.0" departLane="random" departSpeed="8" />
    <vehicle id="car_gg2_22" type="standart_car" route="gg2" depart="301.0" departLane="random" departSpeed="8" />
    <vehicle id="car_gk1_23" type="standart_car" route="gk1" depart="302.0" departLane="random" departSpeed="8" />
    <vehicle id="taxi_sd1_24" type="taxi" route="sd1" depart="309.0" departLane="random" departSpeed="8" />
    <vehicle id="car_sd1_25" type="standart_car" route="sd1" depart="318.0" departLane="random" departSpeed="8" />
    <vehicle id="car_sd1_26" type="standart_car" route="sd1" depart="318.0" departLane="random" departSpeed="8" />
    <vehicle id="car_sd2_27" type="standart_car" route="sd2" depart="319.0" departLane="random" departSpeed="8" />
    <vehicle id="car_gb1_28" type="standart_car" route="gb1" depart="319.0" departLane="random" departSpeed="8" />
    <vehicle id="taxi_sb1_29" type="taxi" route="sb1" depart="322.0" departLane="random" departSpeed="8" />
    <vehicle id="bus_gk1_30" type="bus" route="gk1" depart="332.0" departLane="random" departSpeed="8" />
    <vehicle id="car_gb3_31" type="standart_car" route="gb3" depart="334.0" departLane="random" departSpeed="8" />
    <vehicle id="car_gk2_32" type="standart_car" route="gk2" depart="354.0" departLane="random" departSpeed="8" />
    <vehicle id="car_gg3_33" type="standart_car" route="gg3" depart="356.0" departLane="random" departSpeed="8" />
    <vehicle id="car_sb1_34" type="standart_car" route="sb1" depart="372.0" departLane="random" departSpeed="8" />
    <vehicle id="car_gb1_35" type="standart_car" route="gb1" depart="381.0" departLane="random" departSpeed="8" />
    <vehicle id="car_gd1_36" type="standart_car" route="gd1" depart="385.0" departLane="random" departSpeed="8" />
    <vehicle id="car_gk3_37" type="standart_car" route="gk3" depart="392.0" departLane="random" departSpeed="8" />
    <vehicle id="bus_sd1_38" type="bus" route="sd1" depart="392.0" departLane="random" departSpeed="8" />
    <vehicle id="car_gb1_39" type="standart_car" route="gb1" depart="396.0" departLane="random" departSpeed="8" />
    <vehicle id="car_gg2_40" type="standart_car" route="gg2" depart="401.0" departLane="random" departSpeed="8" />
    <vehicle id="car_gb1_41" type="standart_car" route="gb1" depart="404.0" departLane="random" departSpeed="8" />
    <vehicle id="car_gk1_42" type="standart_car" route="gk1" depart="405.0" departLane="random" departSpeed="8" />
    <vehicle id="bus_gd1_43" type="bus" route="gd1" depart="406.0" departLane="random" departSpeed="8" />
    <vehicle id="car_sd1_44" type="standart_car" route="sd1" depart="408.0" departLane="random" departSpeed="8" />
    <vehicle id="car_gb2_45" type="standart_car" route="gb2" depart="409.0" departLane="random" departSpeed="8" />
    <vehicle id="car_gb1_46" type="standart_car" route="gb1" depart="411.0" departLane="random" departSpeed="8" />
    <vehicle id="bus_gd3_47" type="bus" route="gd3" depart="416.0" departLane="random" departSpeed="8" />
    <vehicle id="car_sk1_48" type="standart_car" route="sk1" depart="420.0" departLane="random" departSpeed="8" />
    <vehicle id="car_gb1_49" type="standart_car" route="gb1" depart="422.0" departLane="random" departSpeed="8" />
    <vehicle id="taxi_sd2_50" type="taxi" route="sd2" depart="425.0" departLane="random" departSpeed="8" />
    <vehicle id="car_sb1_51" type="standart_car" route="sb1" depart="428.0" departLane="random" departSpeed="8" />
    <vehicle id="bus_gg3_52" type="bus" route="gg3" depart="430.0" departLane="random" departSpeed="8" />
    <vehicle id="car_gg2_53" type="standart_car" route="gg2" depart="435.0" departLane="random" departSpeed="8" />
    <vehicle id="bus_sk1_54" type="bus" route="sk1" depart="439.0" departLane="random" departSpeed="8" />
    <vehicle id="car_gd3_55" type="standart_car" route="gd3" depart="439.0" departLane="random" departSpeed="8" />
    <vehicle id="car_gd1_56" type="standart_car" route="gd1" depart="442.0" departLane="random" departSpeed="8" />
    <vehicle id="car_sb1_57" type="standart_car" route="sb1" depart="443.0" departLane="random" departSpeed="8" />
    <vehicle id="car_sd1_58" type="standart_car" route="sd1" depart="444.0" departLane="random" departSpeed="8" />
    <vehicle id="car_sd1_59" type="standart_car" route="sd1" depart="449.0" departLane="random" departSpeed="8" />
    <vehicle id="bus_sb1_60" type="bus" route="sb1" depart="451.0" departLane="random" departSpeed="8" />
    <vehicle id="taxi_sd1_61" type="taxi" route="sd1" depart="451.0" departLane="random" departSpeed="8" />
    <vehicle id="car_gd1_62" type="standart_car" route="gd1" depart="451.0" departLane="random" departSpeed="8" />
    <vehicle id="car_gb1_63" type="standart_car" route="gb1" depart="464.0" departLane="random" departSpeed="8" />
    <vehicle id="car_gb2_64" type="standart_car" route="gb2" depart="471.0" departLane="random" departSpeed="8" />
    <vehicle id="car_gg1_65" type="standart_car" route="gg1" depart="473.0" departLane="random" departSpeed="8" />
    <vehicle id="car_sk1_66" type="standart_car" route="sk1" depart="473.0" departLane="random" departSpeed="8" />
    <vehicle id="bus_gb3_67" type="bus" route="gb3" depart="476.0" departLane="random" departSpeed="8" />
    <vehicle id="car_gb1_68" type="standart_car" route="gb1" depart="482.0" departLane="random" departSpeed="8" />
    <vehicle id="car_sb1_69" type="standart_car" route="sb1" depart="482.0" departLane="random" departSpeed="8" />
    <vehicle id="car_gk2_70" type="standart_car" route="gk2" depart="482.0" departLane="random" departSpeed="8" />
    <vehicle id="car_gd1_71" type="standart_car" route="gd1" depart="485.0" departLane="random" departSpeed="8" />
    <vehicle id="taxi_gg1_72" type="taxi" route="gg1" depart="499.0" departLane="random" departSpeed="8" />
    <vehicle id="car_gb2_73" type="standart_car" route="gb2" depart="499.0" departLane="random" departSpeed="8" />
    <vehicle id="car_sb2_74" type="standart_car" route="sb2" depart="500.0" departLane="random" departSpeed="8" />
    <vehicle id="bus_gd1_75" type="bus" route="gd1" depart="502.0" departLane="random" departSpeed="8" />
    <vehicle id="bus_sd1_76" type="bus" route="sd1" depart="504.0" departLane="random" departSpeed="8" />
    <vehicle id="car_gg1_77" type="standart_car" route="gg1" depart="505.0" departLane="random" departSpeed="8" />
    <vehicle id="bus_sd1_78" type="bus" route="sd1" depart="517.0" departLane="random" departSpeed="8" />
    <vehicle id="car_gd3_79" type="standart_car" route="gd3" depart="538.0" departLane="random" departSpeed="8" />
    <vehicle id="bus_sk1_80" type="bus" route="sk1" depart="538.0" departLane="random" departSpeed="8" />
    <vehicle id="bus_sb2_81" type="bus" route="sb2" depart="541.0" departLane="random" departSpeed="8" />
    <vehicle id="car_sb2_82" type="standart_car" route="sb2" depart="545.0" departLane="random" departSpeed="8" />
    <vehicle id="car_gd1_83" type="standart_car" route="gd1" depart="546.0" departLane="random" departSpeed="8" />
    <vehicle id="bus_sk2_84" type="bus" route="sk2" depart="548.0" departLane="random" departSpeed="8" />
    <vehicle id="car_gk1_85" type="standart_car" route="gk1" depart="551.0" departLane="random" departSpeed="8" />
    <vehicle id="car_gd1_86" type="standart_car" route="gd1" depart="561.0" departLane="random" departSpeed="8" />
    <vehicle id="car_sk1_87" type="standart_car" route="sk1" depart="570.0" departLane="random" departSpeed="8" />
    <vehicle id="car_gb3_88" type="standart_car" route="gb3" depart="575.0" departLane="random" departSpeed="8" />
    <vehicle id="car_sd1_89" type="standart_car" route="sd1" depart="580.0" departLane="random" departSpeed="8" />
    <vehicle id="car_gb1_90" type="standart_car" route="gb1" depart="585.0" departLane="random" departSpeed="8" />
    <vehicle id="car_gg2_91" type="standart_car" route="gg2" depart="587.0" departLane="random" departSpeed="8" />
    <vehicle id="bus_gg3_92" type="bus" route="gg3" depart="589.0" departLane="random" departSpeed="8" />
    <vehicle id="car_sd1_93" type="standart_car" route="sd1" depart="592.0" departLane="random" departSpeed="8" />
    <vehicle id="car_sd1_94" type="standart_car" route="sd1" depart="593.0" departLane="random" departSpeed="8" />
    <vehicle id="car_sk1_95" type="standart_car" route="sk1" depart="600.0" departLane="random" departSpeed="8" />
    <vehicle id="bus_gk1_96" type="bus" route="gk1" depart="603.0" departLane="random" departSpeed="8" />
    <vehicle id="bus_sb1_97" type="bus" route="sb1" depart="604.0" departLane="random" departSpeed="8" />
    <vehicle id="car_sk1_98" type="standart_car" route="sk1" depart="604.0" departLane="random" departSpeed="8" />
    <vehicle id="car_sk1_99" type="standart_car" route="sk1" depart="613.0" departLane="random" departSpeed="8" />
    <vehicle id="car_sk1_100" type="standart_car" route="sk1" depart="613.0" departLane="random" departSpeed="8" />
    <vehicle id="car_sb1_101" type="standart_car" route="sb1" depart="614.0" departLane="random" departSpeed="8" />
    <vehicle id="car_sd1_102" type="standart_car" route="sd1" depart="615.0" departLane="random" departSpeed="8" />
    <vehicle id="car_sd2_103" type="standart_car" route="sd2" depart="628.0" departLane="random" departSpeed="8" />
    <vehicle id="car_sd2_104" type="standart_car" route="sd2" depart="629.0" departLane="random" departSpeed="8" />
    <vehicle id="car_sk1_105" type="standart_car" route="sk1" depart="634.0" departLane="random" departSpeed="8" />
    <vehicle id="car_sd1_106" type="standart_car" route="sd1" depart="636.0" departLane="random" departSpeed="8" />
    <vehicle id="car_sd1_107" type="standart_car" route="sd1" depart="637.0" departLane="random" departSpeed="8" />
    <vehicle id="car_sd1_108" type="standart_car" route="sd1" depart="638.0" departLane="random" departSpeed="8" />
    <vehicle id="bus_gd3_109" type="bus" route="gd3" depart="639.0" departLane="random" departSpeed="8" />
    <vehicle id="bus_sd2_110" type="bus" route="sd2" depart="642.0" departLane="random" departSpeed="8" />
    <vehicle id="bus_sb1_111" type="bus" route="sb1" depart="643.0" departLane="random" departSpeed="8" />
    <vehicle id="car_sb1_112" type="standart_car" route="sb1" depart="643.0" departLane="random" departSpeed="8" />
    <vehicle id="car_gk2_113" type="standart_car" route="gk2" depart="645.0" departLane="random" departSpeed="8" />
    <vehicle id="car_sk2_114" type="standart_car" route="sk2" depart="645.0" departLane="random" departSpeed="8" />
    <vehicle id="car_gd2_115" type="standart_car" route="gd2" depart="649.0" departLane="random" departSpeed="8" />
    <vehicle id="car_sb2_116" type="standart_car" route="sb2" depart="651.0" departLane="random" departSpeed="8" />
    <vehicle id="car_sd1_117" type="standart_car" route="sd1" depart="653.0" departLane="random" departSpeed="8" />
    <vehicle id="bus_gk2_118" type="bus" route="gk2" depart="654.0" departLane="random" departSpeed="8" />
    <vehicle id="car_sb1_119" type="standart_car" route="sb1" depart="655.0" departLane="random" departSpeed="8" />
    <vehicle id="car_sb2_120" type="standart_car" route="sb2" depart="656.0" departLane="random" departSpeed="8" />
    <vehicle id="car_gk1_121" type="standart_car" route="gk1" depart="656.0" departLane="random" departSpeed="8" />
    <vehicle id="car_sd1_122" type="standart_car" route="sd1" depart="658.0" departLane="random" departSpeed="8" />
    <vehicle id="car_sk2_123" type="standart_car" route="sk2" depart="659.0" departLane="random" departSpeed="8" />
    <vehicle id="car_gk1_124" type="standart_car" route="gk1" depart="662.0" departLane="random" departSpeed="8" />
    <vehicle id="bus_gd1_125" type="bus" route="gd1" depart="664.0" departLane="random" departSpeed="8" />
    <vehicle id="car_sb2_126" type="standart_car" route="sb2" depart="665.0" departLane="random" departSpeed="8" />
    <vehicle id="car_sd2_127" type="standart_car" route="sd2" depart="666.0" departLane="random" departSpeed="8" />
    <vehicle id="car_gd3_128" type="standart_car" route="gd3" depart="667.0" departLane="random" departSpeed="8" />
    <vehicle id="car_gd1_129" type="standart_car" route="gd1" depart="668.0" departLane="random" departSpeed="8" />
    <vehicle id="car_gg1_130" type="standart_car" route="gg1" depart="673.0" departLane="random" departSpeed="8" />
    <vehicle id="car_gg1_131" type="standart_car" route="gg1" depart="674.0" departLane="random" departSpeed="8" />
    <vehicle id="car_gk2_132" type="standart_car" route="gk2" depart="675.0" departLane="random" departSpeed="8" />
    <vehicle id="car_gk1_133" type="standart_car" route="gk1" depart="678.0" departLane="random" departSpeed="8" />
    <vehicle id="car_sk2_134" type="standart_car" route="sk2" depart="681.0" departLane="random" departSpeed="8" />
    <vehicle id="car_gb2_135" type="standart_car" route="gb2" depart="682.0" departLane="random" departSpeed="8" />
    <vehicle id="car_sk1_136" type="standart_car" route="sk1" depart="682.0" departLane="random" departSpeed="8" />
    <vehicle id="car_gd3_137" type="standart_car" route="gd3" depart="684.0" departLane="random" departSpeed="8" />
    <vehicle id="car_sb1_138" type="standart_car" route="sb1" depart="687.0" departLane="random" departSpeed="8" />
    <vehicle id="car_gk2_139" type="standart_car" route="gk2" depart="691.0" departLane="random" departSpeed="8" />
    <vehicle id="car_sb2_140" type="standart_car" route="sb2" depart="695.0" departLane="random" departSpeed="8" />
    <vehicle id="bus_gg2_141" type="bus" route="gg2" depart="695.0" departLane="random" departSpeed="8" />
    <vehicle id="bus_gb3_142" type="bus" route="gb3" depart="700.0" departLane="random" departSpeed="8" />
    <vehicle id="car_gg1_143" type="standart_car" route="gg1" depart="702.0" departLane="random" departSpeed="8" />
    <vehicle id="bus_sk2_144" type="bus" route="sk2" depart="704.0" departLane="random" departSpeed="8" />
    <vehicle id="car_gg1_145" type="standart_car" route="gg1" depart="704.0" departLane="random" departSpeed="8" />
    <vehicle id="car_gd1_146" type="standart_car" route="gd1" depart="708.0" departLane="random" departSpeed="8" />
    <vehicle id="car_gg2_147" type="standart_car" route="gg2" depart="717.0" departLane="random" departSpeed="8" />
    <vehicle id="car_gg2_148" type="standart_car" route="gg2" depart="717.0" departLane="random" departSpeed="8" />
    <vehicle id="car_gb1_149" type="standart_car" route="gb1" depart="721.0" departLane="random" departSpeed="8" />
    <vehicle id="bus_gd1_150" type="bus" route="gd1" depart="725.0" departLane="random" departSpeed="8" />
    <vehicle id="car_sb1_151" type="standart_car" route="sb1" depart="725.0" departLane="random" departSpeed="8" />
    <vehicle id="car_gk2_152" type="standart_car" route="gk2" depart="729.0" departLane="random" departSpeed="8" />
    <vehicle id="car_gb3_153" type="standart_car" route="gb3" depart="739.0" departLane="random" departSpeed="8" />
    <vehicle id="bus_gb3_154" type="bus" route="gb3" depart="742.0" departLane="random" departSpeed="8" />
    <vehicle id="car_gb3_155" type="standart_car" route="gb3" depart="742.0" departLane="random" departSpeed="8" />
    <vehicle id="car_gb3_156" type="standart_car" route="gb3" depart="743.0" departLane="random" departSpeed="8" />
    <vehicle id="bus_gb2_157" type="bus" route="gb2" depart="744.0" departLane="random" departSpeed="8" />
    <vehicle id="bus_sk1_158" type="bus" route="sk1" depart="745.0" departLane="random" departSpeed="8" />
    <vehicle id="car_gd1_159" type="standart_car" route="gd1" depart="746.0" departLane="random" departSpeed="8" />
    <vehicle id="car_sd1_160" type="standart_car" route="sd1" depart="746.0" departLane="random" departSpeed="8" />
    <vehicle id="car_sd2_161" type="standart_car" route="sd2" depart="747.0" departLane="random" departSpeed="8" />
    <vehicle id="bus_gb1_162" type="bus" route="gb1" depart="749.0" departLane="random" departSpeed="8" />
    <vehicle id="car_gk2_163" type="standart_car" route="gk2" depart="752.0" departLane="random" departSpeed="8" />
    <vehicle id="car_gd1_164" type="standart_car" route="gd1" depart="757.0" departLane="random" departSpeed="8" />
    <vehicle id="bus_gg1_165" type="bus" route="gg1" depart="760.0" departLane="random" departSpeed="8" />
    <vehicle id="car_gd3_166" type="standart_car" route="gd3" depart="762.0" departLane="random" departSpeed="8" />
    <vehicle id="car_sb1_167" type="standart_car" route="sb1" depart="764.0" departLane="random" departSpeed="8" />
    <vehicle id="car_sk1_168" type="standart_car" route="sk1" depart="766.0" departLane="random" departSpeed="8" />
    <vehicle id="bus_gd1_169" type="bus" route="gd1" depart="767.0" departLane="random" departSpeed="8" />
    <vehicle id="bus_gb3_170" type="bus" route="gb3" depart="767.0" departLane="random" departSpeed="8" />
    <vehicle id="car_gb1_171" type="standart_car" route="gb1" depart="770.0" departLane="random" departSpeed="8" />
    <vehicle id="car_sb1_172" type="standart_car" route="sb1" depart="771.0" departLane="random" departSpeed="8" />
    <vehicle id="car_gg3_173" type="standart_car" route="gg3" depart="779.0" departLane="random" departSpeed="8" />
    <vehicle id="car_sd1_174" type="standart_car" route="sd1" depart="780.0" departLane="random" departSpeed="8" />
    <vehicle id="car_sb1_175" type="standart_car" route="sb1" depart="784.0" departLane="random" departSpeed="8" />
    <vehicle id="car_gk2_176" type="standart_car" route="gk2" depart="788.0" departLane="random" departSpeed="8" />
    <vehicle id="bus_sd1_177" type="bus" route="sd1" depart="788.0" departLane="random" departSpeed="8" />
    <vehicle id="car_gb1_178" type="standart_car" route="gb1" depart="790.0" departLane="random" departSpeed="8" />
    <vehicle id="taxi_sb1_179" type="taxi" route="sb1" depart="796.0" departLane="random" departSpeed="8" />
    <vehicle id="car_gg1_180" type="standart_car" route="gg1" depart="798.0" departLane="random" departSpeed="8" />
    <vehicle id="car_sb1_181" type="standart_car" route="sb1" depart="798.0" departLane="random" departSpeed="8" />
    <vehicle id="car_gd1_182" type="standart_car" route="gd1" depart="799.0" departLane="random" departSpeed="8" />
    <vehicle id="car_gk2_183" type="standart_car" route="gk2" depart="801.0" departLane="random" departSpeed="8" />
    <vehicle id="bus_sk1_184" type="bus" route="sk1" depart="802.0" departLane="random" departSpeed="8" />
    <vehicle id="car_gb2_185" type="standart_car" route="gb2" depart="805.0" departLane="random" departSpeed="8" />
    <vehicle id="car_sk1_186" type="standart_car" route="sk1" depart="808.0" departLane="random" departSpeed="8" />
    <vehicle id="bus_gg2_187" type="bus" route="gg2" depart="809.0" departLane="random" departSpeed="8" />
    <vehicle id="car_sb1_188" type="standart_car" route="sb1" depart="810.0" departLane="random" departSpeed="8" />
    <vehicle id="car_gg1_189" type="standart_car" route="gg1" depart="810.0" departLane="random" departSpeed="8" />
    <vehicle id="bus_gk2_190" type="bus" route="gk2" depart="810.0" departLane="random" departSpeed="8" />
    <vehicle id="car_gk1_191" type="standart_car" route="gk1" depart="813.0" departLane="random" departSpeed="8" />
    <vehicle id="car_gd1_192" type="standart_car" route="gd1" depart="814.0" departLane="random" departSpeed="8" />
    <vehicle id="car_gg1_193" type="standart_car" route="gg1" depart="818.0" departLane="random" departSpeed="8" />
    <vehicle id="bus_gg1_194" type="bus" route="gg1" depart="822.0" departLane="random" departSpeed="8" />
    <vehicle id="car_gk2_195" type="standart_car" route="gk2" depart="822.0" departLane="random" departSpeed="8" />
    <vehicle id="car_sk1_196" type="standart_car" route="sk1" depart="823.0" departLane="random" departSpeed="8" />
    <vehicle id="bus_sb1_197" type="bus" route="sb1" depart="823.0" departLane="random" departSpeed="8" />
    <vehicle id="car_sd2_198" type="standart_car" route="sd2" depart="826.0" departLane="random" departSpeed="8" />
    <vehicle id="car_gk3_199" type="standart_car" route="gk3" depart="827.0" departLane="random" departSpeed="8" />
    <vehicle id="car_gb3_200" type="standart_car" route="gb3" depart="829.0" departLane="random" departSpeed="8" />
    <vehicle id="car_sb1_201" type="standart_car" route="sb1" depart="836.0" departLane="random" departSpeed="8" />
    <vehicle id="taxi_gk2_202" type="taxi" route="gk2" depart="838.0" departLane="random" departSpeed="8" />
    <vehicle id="car_sd2_203" type="standart_car" route="sd2" depart="840.0" departLane="random" departSpeed="8" />
    <vehicle id="car_sb1_204" type="standart_car" route="sb1" depart="841.0" departLane="random" departSpeed="8" />
    <vehicle id="car_gd2_205" type="standart_car" route="gd2" depart="841.0" departLane="random" departSpeed="8" />
    <vehicle id="bus_sb1_206" type="bus" route="sb1" depart="852.0" departLane="random" departSpeed="8" />
    <vehicle id="bus_gb2_207" type="bus" route="gb2" depart="853.0" departLane="random" departSpeed="8" />
    <vehicle id="bus_gk1_208" type="bus" route="gk1" depart="857.0" departLane="random" departSpeed="8" />
    <vehicle id="car_sd2_209" type="standart_car" route="sd2" depart="859.0" departLane="random" departSpeed="8" />
    <vehicle id="bus_gb2_210" type="bus" route="gb2" depart="860.0" departLane="random" departSpeed="8" />
    <vehicle id="car_gb2_211" type="standart_car" route="gb2" depart="861.0" departLane="random" departSpeed="8" />
    <vehicle id="car_gb1_212" type="standart_car" route="gb1" depart="866.0" departLane="random" departSpeed="8" />
    <vehicle id="car_gd1_213" type="standart_car" route="gd1" depart="866.0" departLane="random" departSpeed="8" />
    <vehicle id="car_sk1_214" type="standart_car" route="sk1" depart="868.0" departLane="random" departSpeed="8" />
    <vehicle id="car_sb2_215" type="standart_car" route="sb2" depart="869.0" departLane="random" departSpeed="8" />
    <vehicle id="car_gg2_216" type="standart_car" route="gg2" depart="871.0" departLane="random" departSpeed="8" />
    <vehicle id="bus_gk1_217" type="bus" route="gk1" depart="875.0" departLane="random" departSpeed="8" />
    <vehicle id="car_gd1_218" type="standart_car" route="gd1" depart="879.0" departLane="random" departSpeed="8" />
    <vehicle id="car_gb1_219" type="standart_car" route="gb1" depart="881.0" departLane="random" departSpeed="8" />
    <vehicle id="car_gb2_220" type="standart_car" route="gb2" depart="882.0" departLane="random" departSpeed="8" />
    <vehicle id="car_gg2_221" type="standart_car" route="gg2" depart="883.0" departLane="random" departSpeed="8" />
    <vehicle id="bus_gk2_222" type="bus" route="gk2" depart="891.0" departLane="random" departSpeed="8" />
    <vehicle id="car_gb1_223" type="standart_car" route="gb1" depart="893.0" departLane="random" departSpeed="8" />
    <vehicle id="bus_gk1_224" type="bus" route="gk1" depart="894.0" departLane="random" departSpeed="8" />
    <vehicle id="car_gk1_225" type="standart_car" route="gk1" depart="894.0" departLane="random" departSpeed="8" />
    <vehicle id="taxi_sk1_226" type="taxi" route="sk1" depart="896.0" departLane="random" departSpeed="8" />
    <vehicle id="car_sb2_227" type="standart_car" route="sb2" depart="896.0" departLane="random" departSpeed="8" />
    <vehicle id="car_gb1_228" type="standart_car" route="gb1" depart="896.0" departLane="random" departSpeed="8" />
    <vehicle id="taxi_gk2_229" type="taxi" route="gk2" depart="903.0" departLane="random" departSpeed="8" />
    <vehicle id="bus_sk2_230" type="bus" route="sk2" depart="905.0" departLane="random" departSpeed="8" />
    <vehicle id="car_gd3_231" type="standart_car" route="gd3" depart="908.0" departLane="random" departSpeed="8" />
    <vehicle id="car_gd2_232" type="standart_car" route="gd2" depart="910.0" departLane="random" departSpeed="8" />
    <vehicle id="car_sk1_233" type="standart_car" route="sk1" depart="914.0" departLane="random" departSpeed="8" />
    <vehicle id="bus_sk1_234" type="bus" route="sk1" depart="915.0" departLane="random" departSpeed="8" />
    <vehicle id="car_gg2_235" type="standart_car" route="gg2" depart="917.0" departLane="random" departSpeed="8" />
    <vehicle id="car_sk2_236" type="standart_car" route="sk2" depart="918.0" departLane="random" departSpeed="8" />
    <vehicle id="car_gd2_237" type="standart_car" route="gd2" depart="923.0" departLane="random" departSpeed="8" />
    <vehicle id="car_sb2_238" type="standart_car" route="sb2" depart="925.0" departLane="random" departSpeed="8" />
    <vehicle id="car_sd1_239" type="standart_car" route="sd1" depart="925.0" departLane="random" departSpeed="8" />
    <vehicle id="car_sk2_240" type="standart_car" route="sk2" depart="925.0" departLane="random" departSpeed="8" />
    <vehicle id="car_sb2_241" type="standart_car" route="sb2" depart="927.0" departLane="random" departSpeed="8" />
    <vehicle id="car_gk1_242" type="standart_car" route="gk1" depart="927.0" departLane="random" departSpeed="8" />
    <vehicle id="taxi_sk1_243" type="taxi" route="sk1" depart="928.0" departLane="random" departSpeed="8" />
    <vehicle id="car_gk2_244" type="standart_car" route="gk2" depart="931.0" departLane="random" departSpeed="8" />
    <vehicle id="car_sd1_245" type="standart_car" route="sd1" depart="934.0" departLane="random" departSpeed="8" />
    <vehicle id="taxi_sd2_246" type="taxi" route="sd2" depart="934.0" departLane="random" departSpeed="8" />
    <vehicle id="car_sd2_247" type="standart_car" route="sd2" depart="936.0" departLane="random" departSpeed="8" />
    <vehicle id="car_gd3_248" type="standart_car" route="gd3" depart="941.0" departLane="random" departSpeed="8" />
    <vehicle id="car_sb1_249" type="standart_car" route="sb1" depart="944.0" departLane="random" departSpeed="8" />