<?xml version="1.0" encoding="UTF-8"?>

<!-- generated on 2024-05-06 17:28:32 by Eclipse SUMO netedit Version 1.19.0
<configuration xmlns:xsi="http://www.w3.org/2001/XMLSchema-instance" xsi:noNamespaceSchemaLocation="http://sumo.dlr.de/xsd/neteditConfiguration.xsd">

    <input>
        <sumocfg-file value="C:\Users\BERK\Desktop\iki_kavşak\bursa.sumocfg"/>
        <additional-files value=""/>
        <route-files value="C:\Users\BERK\Desktop\iki_kavşak\bursa.rou.xml"/>
        <sumo-net-file value="C:\Users\BERK\Desktop\iki_kavşak\bursa.net.xml"/>
    </input>

    <output>
        <output-file value="C:\Users\BERK\Desktop\iki_kavşak\bursa.net.xml"/>
    </output>

    <processing>
        <geometry.min-radius.fix.railways value="false"/>
        <geometry.max-grade.fix value="false"/>
        <offset.disable-normalization value="true"/>
        <lefthand value="0"/>
    </processing>

    <junctions>
        <no-turnarounds value="true"/>
        <junctions.corner-detail value="5"/>
        <junctions.limit-turn-speed value="5.50"/>
        <rectangular-lane-cut value="0"/>
    </junctions>

    <pedestrian>
        <walkingareas value="0"/>
    </pedestrian>

    <netedit>
        <ignore.routeelements value="false"/>
    </netedit>

</configuration>
-->

<net version="1.16" junctionCornerDetail="5" limitTurnSpeed="5.50" xmlns:xsi="http://www.w3.org/2001/XMLSchema-instance" xsi:noNamespaceSchemaLocation="http://sumo.dlr.de/xsd/net_file.xsd">

    <location netOffset="-674018.55,-4449478.45" convBoundary="556.63,723.04,3569.44,2215.67" origBoundary="29.044536,40.136876,29.087647,40.199435" projParameter="+proj=utm +zone=35 +ellps=WGS84 +datum=WGS84 +units=m +no_defs"/>

    <type id="highway.primary" priority="12" numLanes="2" speed="27.78" disallow="tram rail_urban rail rail_electric rail_fast ship" oneway="0"/>

    <edge id=":10852898494_0" function="internal">
        <lane id=":10852898494_0_0" index="0" speed="9.52" length="11.06" shape="2811.61,1162.05 2809.65,1160.48 2807.29,1159.50 2804.51,1159.12 2801.33,1159.33"/>
    </edge>
    <edge id=":10852898494_1" function="internal">
        <lane id=":10852898494_1_0" index="0" disallow="tram rail_urban rail rail_electric rail_fast ship" speed="20.84" length="13.65" shape="2811.61,1162.05 2802.61,1151.63"/>
        <lane id=":10852898494_1_1" index="1" disallow="tram rail_urban rail rail_electric rail_fast ship" speed="20.84" length="13.65" shape="2813.95,1159.86 2805.10,1149.62"/>
    </edge>
    <edge id=":10852898494_3" function="internal">
        <lane id=":10852898494_3_0" index="0" disallow="tram rail_urban rail rail_electric rail_fast ship" speed="20.84" length="13.55" shape="2814.59,1154.76 2811.00,1156.91 2808.34,1158.06 2805.50,1158.70 2801.33,1159.33"/>
        <lane id=":10852898494_3_1" index="1" disallow="tram rail_urban rail rail_electric rail_fast ship" speed="20.84" length="13.55" shape="2812.88,1152.05 2809.62,1154.00 2807.21,1155.03 2804.63,1155.60 2800.85,1156.17"/>
    </edge>
    <edge id=":10852898494_5" function="internal">
        <lane id=":10852898494_5_0" index="0" disallow="tram rail_urban rail rail_electric rail_fast ship" speed="6.79" length="9.03" shape="2812.88,1152.05 2810.95,1152.81 2809.01,1152.66 2807.06,1151.60 2805.10,1149.62"/>
    </edge>
    <edge id=":10852898500_0" function="internal">
        <lane id=":10852898500_0_0" index="0" disallow="tram rail_urban rail rail_electric rail_fast ship" speed="20.84" length="16.45" shape="2800.78,1149.37 2790.45,1136.57"/>
        <lane id=":10852898500_0_1" index="1" disallow="tram rail_urban rail rail_electric rail_fast ship" speed="20.84" length="16.45" shape="2803.27,1147.36 2792.94,1134.56"/>
    </edge>
    <edge id=":10852898500_2" function="internal">
        <lane id=":10852898500_2_0" index="0" disallow="tram rail_urban rail rail_electric rail_fast ship" speed="6.15" length="9.06" shape="2803.27,1147.36 2801.96,1145.17 2801.77,1143.20 2802.70,1141.45 2804.74,1139.92"/>
    </edge>
    <edge id=":10852898500_3" function="internal">
        <lane id=":10852898500_3_0" index="0" speed="5.87" length="9.11" shape="2788.42,1143.47 2790.79,1142.29 2791.92,1140.75 2791.80,1138.84 2790.45,1136.57"/>
    </edge>
    <edge id=":10852898500_4" function="internal">
        <lane id=":10852898500_4_0" index="0" disallow="tram rail_urban rail rail_electric rail_fast ship" speed="20.84" length="16.42" shape="2788.42,1143.47 2792.96,1141.95 2796.03,1140.78 2798.99,1139.37 2803.21,1137.11"/>
        <lane id=":10852898500_4_1" index="1" disallow="tram rail_urban rail rail_electric rail_fast ship" speed="20.84" length="16.42" shape="2789.43,1146.51 2794.13,1144.93 2797.31,1143.72 2800.37,1142.26 2804.74,1139.92"/>
    </edge>
    <edge id=":10852898501_0" function="internal">
        <lane id=":10852898501_0_0" index="0" speed="6.30" length="9.04" shape="2831.95,1143.16 2830.16,1144.92 2829.43,1146.79 2829.76,1148.77 2831.16,1150.86"/>
    </edge>
    <edge id=":10852898501_1" function="internal">
        <lane id=":10852898501_1_0" index="0" disallow="tram rail_urban rail rail_electric rail_fast ship" speed="20.84" length="15.27" shape="2831.95,1143.16 2819.24,1151.82"/>
        <lane id=":10852898501_1_1" index="1" disallow="tram rail_urban rail rail_electric rail_fast ship" speed="20.84" length="15.27" shape="2830.06,1140.58 2817.53,1149.11"/>
    </edge>
    <edge id=":10852898501_3" function="internal">
        <lane id=":10852898501_3_0" index="0" disallow="tram rail_urban rail rail_electric rail_fast ship" speed="20.84" length="15.28" shape="2821.05,1139.45 2831.16,1150.86"/>
        <lane id=":10852898501_3_1" index="1" disallow="tram rail_urban rail rail_electric rail_fast ship" speed="20.84" length="15.28" shape="2818.63,1141.55 2828.79,1153.00"/>
    </edge>
    <edge id=":10852898501_5" function="internal">
        <lane id=":10852898501_5_0" index="0" disallow="tram rail_urban rail rail_electric rail_fast ship" speed="6.20" length="9.05" shape="2818.63,1141.55 2820.01,1143.68 2820.29,1145.65 2819.46,1147.46 2817.53,1149.11"/>
    </edge>
    <edge id=":248515779_0" function="internal">
        <lane id=":248515779_0_0" index="0" speed="6.77" length="9.68" shape="2810.04,1126.27 2811.99,1128.16 2814.05,1129.01 2816.21,1128.83 2818.47,1127.61"/>
    </edge>
    <edge id=":248515779_1" function="internal">
        <lane id=":248515779_1_0" index="0" disallow="tram rail_urban rail rail_electric rail_fast ship" speed="20.84" length="15.04" shape="2810.04,1126.27 2819.59,1137.78"/>
        <lane id=":248515779_1_1" index="1" disallow="tram rail_urban rail rail_electric rail_fast ship" speed="20.84" length="15.04" shape="2807.53,1128.25 2817.18,1139.89"/>
    </edge>
    <edge id=":248515779_3" function="internal">
        <lane id=":248515779_3_0" index="0" disallow="tram rail_urban rail rail_electric rail_fast ship" speed="20.84" length="15.03" shape="2806.03,1135.58 2809.88,1133.47 2812.47,1131.93 2814.95,1130.23 2818.47,1127.61"/>
        <lane id=":248515779_3_1" index="1" disallow="tram rail_urban rail rail_electric rail_fast ship" speed="20.84" length="15.03" shape="2807.56,1138.39 2811.53,1136.21 2814.20,1134.63 2816.76,1132.87 2820.39,1130.17"/>
    </edge>
    <edge id=":248515779_5" function="internal">
        <lane id=":248515779_5_0" index="0" disallow="tram rail_urban rail rail_electric rail_fast ship" speed="7.62" length="10.64" shape="2807.56,1138.39 2810.28,1137.33 2812.78,1137.23 2815.09,1138.08 2817.18,1139.89"/>
    </edge>
    <edge id=":289537083_0" function="internal">
        <lane id=":289537083_0_0" index="0" speed="13.89" length="0.23" shape="2218.83,1133.41 2218.65,1133.41"/>
        <lane id=":289537083_0_1" index="1" speed="13.89" length="0.23" shape="2218.83,1130.21 2218.53,1130.22"/>
    </edge>
    <edge id=":289538633_0" function="internal">
        <lane id=":289538633_0_0" index="0" speed="8.80" length="17.38" shape="1432.37,1268.35 1425.90,1268.72 1421.28,1269.84 1418.50,1271.72 1417.57,1274.35"/>
    </edge>
    <edge id=":289538633_1" function="internal">
        <lane id=":289538633_1_0" index="0" disallow="tram rail_urban rail rail_electric rail_fast ship" speed="20.84" length="24.59" shape="1432.37,1268.35 1425.75,1268.59 1420.17,1269.04 1414.61,1269.29 1408.01,1268.93"/>
        <lane id=":289538633_1_1" index="1" disallow="tram rail_urban rail rail_electric rail_fast ship" speed="20.84" length="24.59" shape="1432.38,1265.15 1425.69,1265.38 1419.98,1265.81 1414.28,1266.04 1407.63,1265.67"/>
    </edge>
    <edge id=":289538633_3" function="internal">
        <lane id=":289538633_3_0" index="0" disallow="tram rail_urban rail rail_electric rail_fast ship" speed="20.84" length="22.61" shape="1429.35,1258.76 1424.69,1263.72 1419.80,1266.29 1415.94,1269.00 1414.37,1274.34"/>
    </edge>
    <edge id=":289538633_4" function="internal">
        <lane id=":289538633_4_0" index="0" disallow="tram rail_urban rail rail_electric rail_fast ship" speed="11.18" length="24.59" shape="1427.11,1255.94 1424.51,1262.25 1420.46,1266.51 1414.96,1268.74 1408.01,1268.93"/>
        <lane id=":289538633_4_1" index="1" disallow="tram rail_urban rail rail_electric rail_fast ship" speed="10.76" length="24.59" shape="1424.61,1252.80 1422.17,1258.97 1418.53,1263.17 1413.68,1265.41 1407.63,1265.67"/>
    </edge>
    <edge id=":289584631_0" function="internal">
        <lane id=":289584631_0_0" index="0" disallow="tram rail_urban rail rail_electric rail_fast ship" speed="20.84" length="19.86" shape="1414.31,1230.64 1434.00,1233.26"/>
        <lane id=":289584631_0_1" index="1" disallow="tram rail_urban rail rail_electric rail_fast ship" speed="20.84" length="20.41" shape="1414.31,1230.64 1420.13,1231.93 1424.01,1233.69 1427.90,1235.37 1433.74,1236.45"/>
    </edge>
    <edge id=":289584631_2" function="internal">
        <lane id=":289584631_2_0" index="0" disallow="tram rail_urban rail rail_electric rail_fast ship" speed="11.73" length="20.69" shape="1414.31,1230.64 1419.92,1231.94 1424.43,1234.38 1427.83,1237.97 1430.14,1242.69"/>
        <lane id=":289584631_2_1" index="1" disallow="tram rail_urban rail rail_electric rail_fast ship" speed="11.41" length="20.69" shape="1413.03,1233.71 1418.15,1234.94 1422.30,1237.31 1425.48,1240.82 1427.69,1245.47"/>
        <lane id=":289584631_2_2" index="2" disallow="tram rail_urban rail rail_electric rail_fast ship" speed="10.23" length="20.69" shape="1413.03,1233.71 1418.05,1235.15 1421.70,1238.11 1423.99,1242.61 1424.91,1248.63"/>
    </edge>
    <edge id=":289584700_0" function="internal">
        <lane id=":289584700_0_0" index="0" disallow="tram rail_urban rail rail_electric rail_fast ship" speed="15.61" length="12.53" shape="1390.27,1232.32 1393.72,1232.86 1396.17,1233.41 1398.52,1233.40 1401.66,1232.29"/>
        <lane id=":289584700_0_1" index="1" disallow="tram rail_urban rail rail_electric rail_fast ship" speed="16.68" length="12.53" shape="1390.00,1235.51 1393.96,1236.09 1396.76,1236.61 1399.44,1236.50 1403.05,1235.18"/>
    </edge>
    <edge id=":289584700_2" function="internal">
        <lane id=":289584700_2_0" index="0" disallow="tram rail_urban rail rail_electric rail_fast ship" speed="15.17" length="12.22" shape="1391.71,1239.71 1393.86,1236.70 1395.81,1235.03 1398.21,1233.84 1401.66,1232.29"/>
        <lane id=":289584700_2_1" index="1" disallow="tram rail_urban rail rail_electric rail_fast ship" speed="14.56" length="12.22" shape="1393.99,1242.13 1395.94,1239.34 1397.71,1237.75 1399.88,1236.62 1403.05,1235.18"/>
    </edge>
    <edge id=":290581008_0" function="internal">
        <lane id=":290581008_0_0" index="0" speed="13.89" length="9.08" shape="1500.50,1238.54 1502.96,1238.72 1504.65,1238.76 1506.34,1238.64 1508.78,1238.35"/>
        <lane id=":290581008_0_1" index="1" speed="13.89" length="9.08" shape="1500.25,1241.73 1502.90,1241.92 1504.72,1241.96 1506.54,1241.84 1509.18,1241.53"/>
        <lane id=":290581008_0_2" index="2" speed="13.89" length="9.08" shape="1500.25,1241.73 1503.08,1242.44 1504.92,1243.59 1506.75,1244.55 1509.57,1244.70"/>
    </edge>
    <edge id=":3348291022_0" function="internal">
        <lane id=":3348291022_0_0" index="0" disallow="tram rail_urban rail rail_electric rail_fast ship" speed="20.84" length="20.85" shape="1404.34,1268.27 1398.77,1265.78 1394.95,1263.52 1391.03,1261.70 1385.17,1260.49"/>
    </edge>
    <edge id=":3348291022_1" function="internal">
        <lane id=":3348291022_1_0" index="0" disallow="tram rail_urban rail rail_electric rail_fast ship" speed="12.73" length="19.35" shape="1404.34,1268.27 1400.43,1266.17 1397.17,1262.92 1394.55,1258.53 1392.58,1252.99"/>
        <lane id=":3348291022_1_1" index="1" disallow="tram rail_urban rail rail_electric rail_fast ship" speed="10.66" length="19.35" shape="1405.82,1265.41 1401.47,1263.17 1398.32,1260.07 1396.38,1256.08 1395.66,1251.21"/>
    </edge>
    <edge id=":3348291022_3" function="internal">
        <lane id=":3348291022_3_0" index="0" speed="7.99" length="14.29" shape="1394.58,1271.73 1394.29,1268.65 1392.56,1266.28 1389.40,1264.62 1384.81,1263.67"/>
    </edge>
    <edge id=":3348291022_4" function="internal">
        <lane id=":3348291022_4_0" index="0" disallow="tram rail_urban rail rail_electric rail_fast ship" speed="20.84" length="19.11" shape="1394.58,1271.73 1394.61,1266.55 1393.42,1263.10 1391.60,1259.70 1389.71,1254.65"/>
        <lane id=":3348291022_4_1" index="1" disallow="tram rail_urban rail rail_electric rail_fast ship" speed="20.84" length="19.11" shape="1397.76,1272.12 1397.83,1266.33 1396.59,1262.46 1394.65,1258.63 1392.58,1252.99"/>
    </edge>
    <edge id=":J0_0" function="internal">
        <lane id=":J0_0_0" index="0" speed="13.89" length="0.26" shape="1926.98,1165.55 1926.77,1165.61"/>
        <lane id=":J0_0_1" index="1" speed="13.89" length="0.26" shape="1926.21,1162.45 1925.92,1162.52"/>
    </edge>
    <edge id=":J1_0" function="internal">
        <lane id=":J1_0_0" index="0" speed="13.89" length="0.94" shape="1332.34,1773.98 1332.39,1773.85 1332.42,1773.76 1332.44,1773.66 1332.46,1773.53"/>
        <lane id=":J1_0_1" index="1" speed="13.89" length="0.94" shape="1335.26,1775.27 1335.43,1774.88 1335.52,1774.61 1335.58,1774.33 1335.64,1773.92"/>
    </edge>
    <edge id=":J13_0" function="internal">
        <lane id=":J13_0_0" index="0" speed="13.89" length="0.32" shape="1899.35,1147.81 1899.76,1147.71"/>
        <lane id=":J13_0_1" index="1" speed="13.89" length="0.32" shape="1900.22,1150.89 1900.53,1150.81"/>
        <lane id=":J13_0_2" index="2" speed="13.89" length="0.32" shape="1901.08,1153.97 1901.30,1153.92"/>
    </edge>
    <edge id=":J2_0" function="internal">
        <lane id=":J2_0_0" index="0" speed="13.89" length="1.11" shape="3021.91,1599.65 3021.93,1599.48 3021.93,1599.37 3021.92,1599.26 3021.89,1599.10"/>
        <lane id=":J2_0_1" index="1" speed="10.62" length="1.11" shape="3025.08,1600.08 3025.14,1599.59 3025.16,1599.25 3025.12,1598.91 3025.02,1598.43"/>
    </edge>
    <edge id=":J3_0" function="internal">
        <lane id=":J3_0_0" index="0" speed="13.89" length="0.84" shape="892.93,1175.77 893.30,1175.71 893.56,1175.68 893.81,1175.68 894.19,1175.71"/>
        <lane id=":J3_0_1" index="1" speed="13.89" length="0.84" shape="893.50,1178.92 893.62,1178.90 893.70,1178.89 893.79,1178.89 893.91,1178.90"/>
    </edge>
    <edge id=":J4_0" function="internal">
        <lane id=":J4_0_0" index="0" speed="13.89" length="8.03" shape="2277.79,1118.60 2280.17,1118.42 2281.78,1117.94 2283.39,1117.49 2285.77,1117.43"/>
        <lane id=":J4_0_1" index="1" speed="13.89" length="8.03" shape="2277.70,1121.80 2280.03,1121.62 2281.61,1121.13 2283.18,1120.69 2285.51,1120.62"/>
    </edge>
    <edge id=":J5_0" function="internal">
        <lane id=":J5_0_0" index="0" speed="6.48" length="4.22" shape="2493.89,729.08 2494.97,729.21 2495.93,729.56 2496.79,730.12 2497.55,730.90"/>
        <lane id=":J5_0_1" index="1" speed="4.12" length="1.41" shape="2493.82,732.28 2494.18,732.32 2494.50,732.44 2494.79,732.62 2495.04,732.88"/>
    </edge>
    <edge id=":J6_0" function="internal">
        <lane id=":J6_0_0" index="0" speed="13.89" length="0.66" shape="3296.21,968.33 3296.11,968.33 3296.04,968.32 3295.97,968.33 3295.88,968.34"/>
        <lane id=":J6_0_1" index="1" speed="13.89" length="0.66" shape="3296.50,965.15 3296.20,965.12 3296.00,965.11 3295.80,965.13 3295.50,965.16"/>
    </edge>

    <edge id="E0" from="10852898501" to="J7" priority="-1" spreadType="center" shape="2824.92,1146.33 2997.68,1337.74 3125.01,1923.09">
        <lane id="E0_0" index="0" speed="13.89" length="849.34" shape="2831.16,1150.86 2999.15,1336.98 3126.57,1922.75"/>
        <lane id="E0_1" index="1" speed="13.89" length="849.34" shape="2828.79,1153.00 2996.21,1338.50 3123.45,1923.43"/>
    </edge>
    <edge id="E1" from="J0" to="289538633" priority="-1" spreadType="center" shape="1926.47,1164.03 1770.79,1207.08 1634.55,1244.66 1511.35,1266.87 1415.98,1266.73">
        <lane id="E1_0" index="0" speed="13.89" length="506.88" shape="1926.77,1165.61 1771.22,1208.62 1634.91,1246.22 1511.49,1268.47 1432.37,1268.35"/>
        <lane id="E1_1" index="1" speed="13.89" length="506.88" shape="1925.92,1162.52 1770.36,1205.54 1634.19,1243.10 1511.21,1265.27 1432.38,1265.15"/>
    </edge>
    <edge id="E10" from="J9" to="J2" priority="-1" spreadType="center" shape="2740.29,1852.53 3009.24,1703.84 3023.57,1599.31">
        <lane id="E10_0" index="0" speed="13.89" length="412.26" shape="2739.52,1851.13 3007.76,1702.83 3021.91,1599.65"/>
        <lane id="E10_1" index="1" speed="13.89" length="412.26" shape="2741.06,1853.93 3010.72,1704.85 3025.08,1600.08"/>
    </edge>
    <edge id="E11" from="10852898494" to="289537083" priority="-1" spreadType="center" shape="2808.69,1156.60 2740.06,1166.99 2506.63,1148.22 2299.12,1131.80 2218.71,1131.81">
        <lane id="E11_0" index="0" speed="13.89" length="584.36" shape="2801.33,1159.33 2740.12,1168.60 2506.50,1149.81 2299.06,1133.40 2218.83,1133.41"/>
        <lane id="E11_1" index="1" speed="13.89" length="584.36" shape="2800.85,1156.17 2740.00,1165.38 2506.76,1146.63 2299.18,1130.20 2218.83,1130.21"/>
    </edge>
    <edge id="E12" from="289537083" to="J0" priority="-1" spreadType="center" shape="2218.71,1131.81 2028.49,1138.74 1926.47,1164.03">
        <lane id="E12_0" index="0" speed="13.89" length="295.20" shape="2218.65,1133.41 2028.71,1140.33 1926.98,1165.55"/>
        <lane id="E12_1" index="1" speed="13.89" length="295.20" shape="2218.53,1130.22 2028.27,1137.15 1926.21,1162.45"/>
    </edge>
    <edge id="E13" from="289584631" to="290581008" priority="-1" spreadType="center">
        <lane id="E13_0" index="0" speed="13.89" length="66.71" shape="1434.00,1233.26 1500.50,1238.54"/>
        <lane id="E13_1" index="1" speed="13.89" length="66.71" shape="1433.74,1236.45 1500.25,1241.73"/>
    </edge>
    <edge id="E14" from="J10" to="J6" priority="-1" spreadType="center" shape="3569.44,1218.60 3502.04,1057.39 3402.33,976.30 3296.02,966.71">
        <lane id="E14_0" index="0" speed="13.89" length="409.66" shape="3567.96,1219.22 3500.72,1058.38 3401.70,977.85 3296.21,968.33"/>
        <lane id="E14_1" index="1" speed="13.89" length="409.66" shape="3570.92,1217.98 3503.36,1056.40 3402.96,974.75 3296.50,965.15"/>
    </edge>
    <edge id="E15" from="290581008" to="J13" priority="-1" spreadType="center" shape="1512.60,1241.10 1631.66,1226.28 1900.37,1150.85">
        <lane id="E15_0" index="0" speed="13.89" length="402.36" shape="1508.78,1238.35 1631.03,1223.13 1899.35,1147.81"/>
        <lane id="E15_1" index="1" speed="13.89" length="402.36" shape="1509.18,1241.53 1631.66,1226.28 1900.22,1150.89"/>
        <lane id="E15_2" index="2" speed="13.89" length="402.36" shape="1509.57,1244.70 1632.29,1229.43 1901.08,1153.97"/>
    </edge>
    <edge id="E16" from="J13" to="J4" priority="-1" spreadType="center" shape="1900.37,1150.85 2027.42,1119.34 2188.38,1116.06 2281.72,1118.71">
        <lane id="E16_0" index="0" speed="13.89" length="381.18" shape="1899.76,1147.71 2027.00,1116.15 2188.39,1112.86 2277.88,1115.40"/>
        <lane id="E16_1" index="1" speed="13.89" length="381.18" shape="1900.53,1150.81 2027.42,1119.34 2188.38,1116.06 2277.79,1118.60"/>
        <lane id="E16_2" index="2" speed="13.89" length="381.18" shape="1901.30,1153.92 2027.84,1122.53 2188.37,1119.26 2277.70,1121.80"/>
    </edge>
    <edge id="E17" from="J11" to="J5" priority="-1" spreadType="center">
        <lane id="E17_0" index="0" speed="13.89" length="335.68" shape="2158.30,721.44 2493.89,729.08"/>
        <lane id="E17_1" index="1" speed="13.89" length="335.68" shape="2158.22,724.64 2493.82,732.28"/>
    </edge>
    <edge id="E18" from="J12" to="J3" priority="-1" spreadType="center" shape="556.63,1582.75 588.98,1389.84 724.39,1251.51 792.50,1195.33 893.63,1177.27">
        <lane id="E18_0" index="0" speed="13.89" length="579.78" shape="555.05,1582.49 587.49,1389.08 723.31,1250.33 791.81,1193.83 892.93,1175.77"/>
        <lane id="E18_1" index="1" speed="13.89" length="579.78" shape="558.21,1583.01 590.47,1390.60 725.47,1252.69 793.19,1196.83 893.50,1178.92"/>
    </edge>
    <edge id="E19" from="3348291022" to="J14" priority="-1" spreadType="center">
        <lane id="E19_0" index="0" speed="13.89" length="468.36" shape="1384.81,1263.67 919.37,1211.43"/>
        <lane id="E19_1" index="1" speed="13.89" length="468.36" shape="1385.17,1260.49 919.73,1208.25"/>
    </edge>
    <edge id="E2" from="J1" to="3348291022" priority="-1" spreadType="center">
        <lane id="E2_0" index="0" speed="13.89" length="505.63" shape="1332.46,1773.53 1394.58,1271.73"/>
        <lane id="E2_1" index="1" speed="13.89" length="505.63" shape="1335.64,1773.92 1397.76,1272.12"/>
    </edge>
    <edge id="E20" from="J15" to="J1" priority="-1" spreadType="center" shape="990.44,2215.67 1227.40,2016.06 1333.99,1774.19">
        <lane id="E20_0" index="0" speed="13.89" length="573.67" shape="989.41,2214.45 1226.09,2015.08 1332.34,1773.98"/>
        <lane id="E20_1" index="1" speed="13.89" length="573.67" shape="991.47,2216.89 1228.71,2017.04 1335.26,1775.27"/>
    </edge>
    <edge id="E21" from="289538633" to="J17" priority="-1" spreadType="center">
        <lane id="E21_0" index="0" speed="13.89" length="758.99" shape="1417.57,1274.35 1416.67,2033.34"/>
        <lane id="E21_1" index="1" speed="13.89" length="758.99" shape="1414.37,1274.34 1413.47,2033.34"/>
    </edge>
    <edge id="E3" from="J3" to="289584700" priority="-1" spreadType="center" shape="893.63,1177.27 1218.66,1205.20 1312.24,1227.40 1400.22,1234.76">
        <lane id="E3_0" index="0" speed="13.89" length="500.15" shape="894.19,1175.71 1218.91,1203.62 1312.49,1225.82 1390.27,1232.32"/>
        <lane id="E3_1" index="1" speed="13.89" length="500.15" shape="893.91,1178.90 1218.41,1206.78 1311.99,1228.98 1390.00,1235.51"/>
    </edge>
    <edge id="E30" from="289584631" to="289538633" priority="12" type="highway.primary" spreadType="center" shape="1417.92,1233.59 1424.11,1237.92 1426.44,1241.70 1428.04,1246.53 1428.22,1251.60 1426.96,1256.52 1424.37,1260.90 1415.98,1266.73">
        <lane id="E30_0" index="0" disallow="tram rail_urban rail rail_electric rail_fast ship" speed="27.78" length="10.50" shape="1430.14,1242.69 1431.22,1245.96 1431.43,1251.95 1429.95,1257.76 1429.35,1258.76"/>
        <lane id="E30_1" index="1" disallow="tram rail_urban rail rail_electric rail_fast ship" speed="27.78" length="10.50" shape="1427.69,1245.47 1428.04,1246.53 1428.22,1251.60 1427.11,1255.94"/>
        <lane id="E30_2" index="2" disallow="tram rail_urban rail rail_electric rail_fast ship" speed="27.78" length="10.50" shape="1424.91,1248.63 1425.01,1251.25 1424.61,1252.80"/>
    </edge>
    <edge id="E31" from="289538633" to="3348291022" priority="12" type="highway.primary" spreadType="center" shape="1415.98,1266.73 1409.64,1267.50 1405.75,1267.08 1400.71,1265.26 1397.22,1263.45">
        <lane id="E31_0" index="0" disallow="tram rail_urban rail rail_electric rail_fast ship" speed="27.78" length="2.79" shape="1408.01,1268.93 1405.39,1268.65 1404.34,1268.27"/>
        <lane id="E31_1" index="1" disallow="tram rail_urban rail rail_electric rail_fast ship" speed="27.78" length="2.79" shape="1407.63,1265.67 1406.11,1265.51 1405.82,1265.41"/>
    </edge>
    <edge id="E32" from="3348291022" to="289584700" priority="12" type="highway.primary" spreadType="center" shape="1397.22,1263.45 1393.94,1258.04 1392.49,1252.67 1392.37,1247.52 1393.72,1242.56 1396.43,1238.16 1400.22,1234.76">
        <lane id="E32_0" index="0" disallow="tram rail_urban rail rail_electric rail_fast ship" speed="27.78" length="11.07" shape="1389.71,1254.65 1389.30,1253.13 1389.16,1247.13 1390.75,1241.27 1391.71,1239.71"/>
        <lane id="E32_1" index="1" disallow="tram rail_urban rail rail_electric rail_fast ship" speed="27.78" length="11.07" shape="1392.58,1252.99 1392.49,1252.67 1392.37,1247.52 1393.72,1242.56 1393.99,1242.13"/>
        <lane id="E32_2" index="2" disallow="tram rail_urban rail rail_electric rail_fast ship" speed="27.78" length="11.07" shape="1395.66,1251.21 1395.58,1247.91 1396.45,1244.73"/>
    </edge>
    <edge id="E33" from="289584700" to="289584631" priority="12" type="highway.primary" spreadType="center" shape="1400.22,1234.76 1404.81,1232.56 1409.84,1231.72 1414.91,1232.32 1417.92,1233.59">
        <lane id="E33_0" index="0" disallow="tram rail_urban rail rail_electric rail_fast ship" speed="27.78" length="11.68" shape="1401.66,1232.29 1404.32,1231.02 1409.80,1230.10 1414.31,1230.64"/>
        <lane id="E33_1" index="1" disallow="tram rail_urban rail rail_electric rail_fast ship" speed="27.78" length="11.68" shape="1403.05,1235.18 1405.30,1234.10 1409.88,1233.34 1413.03,1233.71"/>
    </edge>
    <edge id="E34" from="10852898494" to="10852898500" priority="12" type="highway.primary" spreadType="center">
        <lane id="E34_0" index="0" disallow="tram rail_urban rail rail_electric rail_fast ship" speed="27.78" length="2.91" shape="2802.61,1151.63 2800.78,1149.37"/>
        <lane id="E34_1" index="1" disallow="tram rail_urban rail rail_electric rail_fast ship" speed="27.78" length="2.91" shape="2805.10,1149.62 2803.27,1147.36"/>
    </edge>
    <edge id="E35" from="10852898500" to="248515779" priority="12" type="highway.primary" spreadType="center">
        <lane id="E35_0" index="0" disallow="tram rail_urban rail rail_electric rail_fast ship" speed="27.78" length="3.21" shape="2803.21,1137.11 2806.03,1135.58"/>
        <lane id="E35_1" index="1" disallow="tram rail_urban rail rail_electric rail_fast ship" speed="27.78" length="3.21" shape="2804.74,1139.92 2807.56,1138.39"/>
    </edge>
    <edge id="E36" from="248515779" to="10852898501" priority="12" type="highway.primary" spreadType="center">
        <lane id="E36_0" index="0" disallow="tram rail_urban rail rail_electric rail_fast ship" speed="27.78" length="2.21" shape="2819.59,1137.78 2821.05,1139.45"/>
        <lane id="E36_1" index="1" disallow="tram rail_urban rail rail_electric rail_fast ship" speed="27.78" length="2.21" shape="2817.18,1139.89 2818.63,1141.55"/>
    </edge>
    <edge id="E37" from="10852898501" to="10852898494" priority="12" type="highway.primary" spreadType="center">
        <lane id="E37_0" index="0" disallow="tram rail_urban rail rail_electric rail_fast ship" speed="27.78" length="5.50" shape="2819.24,1151.82 2814.59,1154.76"/>
        <lane id="E37_1" index="1" disallow="tram rail_urban rail rail_electric rail_fast ship" speed="27.78" length="5.50" shape="2817.53,1149.11 2812.88,1152.05"/>
    </edge>
    <edge id="E4" from="J2" to="10852898494" priority="-1" spreadType="center" shape="3023.57,1599.31 2971.30,1354.44 2889.78,1242.92 2808.69,1156.60">
        <lane id="E4_0" index="0" speed="13.89" length="500.43" shape="3021.89,1599.10 2969.81,1355.11 2888.55,1243.94 2811.61,1162.05"/>
        <lane id="E4_1" index="1" speed="13.89" length="500.43" shape="3025.02,1598.43 2972.79,1353.77 2891.01,1241.90 2813.95,1159.86"/>
    </edge>
    <edge id="E5" from="J4" to="10852898500" priority="-1" spreadType="center" shape="2281.72,1118.71 2735.52,1155.49 2781.15,1147.58 2797.09,1142.27">
        <lane id="E5_0" index="0" speed="13.89" length="505.86" shape="2285.77,1117.43 2735.45,1153.88 2780.76,1146.02 2788.42,1143.47"/>
        <lane id="E5_1" index="1" speed="13.89" length="505.86" shape="2285.51,1120.62 2735.59,1157.10 2781.54,1149.14 2789.43,1146.51"/>
    </edge>
    <edge id="E6" from="J5" to="248515779" priority="-1" spreadType="center">
        <lane id="E6_0" index="0" speed="13.89" length="503.95" shape="2497.55,730.90 2810.04,1126.27"/>
        <lane id="E6_1" index="1" speed="13.89" length="503.95" shape="2495.04,732.88 2807.53,1128.25"/>
    </edge>
    <edge id="E7" from="J6" to="10852898501" priority="-1" spreadType="center" shape="3296.02,966.71 3134.02,985.80 3032.90,1019.28 2975.76,1049.90 2932.50,1080.94 2888.19,1100.01 2824.92,1146.33">
        <lane id="E7_0" index="0" speed="13.89" length="506.48" shape="3295.88,968.34 3134.37,987.37 3033.53,1020.76 2976.61,1051.26 2933.29,1082.34 2888.99,1101.41 2831.95,1143.16"/>
        <lane id="E7_1" index="1" speed="13.89" length="506.48" shape="3295.50,965.16 3133.67,984.23 3032.27,1017.80 2974.91,1048.54 2931.71,1079.54 2887.39,1098.61 2830.06,1140.58"/>
    </edge>
    <edge id="E8" from="248515779" to="3271181044" priority="-1" spreadType="center" shape="2813.56,1133.30 2913.31,1058.33 3023.19,994.07 3131.45,959.51 3281.94,943.51 3402.98,952.06">
        <lane id="E8_0" index="0" speed="13.89" length="631.05" shape="2818.47,1127.61 2912.42,1057.00 3022.53,992.60 3131.12,957.94 3281.91,941.90 3403.09,950.46"/>
        <lane id="E8_1" index="1" speed="13.89" length="631.05" shape="2820.39,1130.17 2914.20,1059.66 3023.85,995.54 3131.78,961.08 3281.97,945.12 3402.87,953.66"/>
    </edge>