<routes>
            <vType accel="1.0" decel="4.5" vClass= "passenger" id="standard_car" length="5.0" minGap="2.5" maxSpeed="25" sigma="0.5" color= "cyan" />
            <vType accel="1.0" decel="4.5" vClass= "bus" id="bus" length="10.0" minGap="2.5" maxSpeed="15" sigma="0.5" color= "red" />
            <vType accel="1.0" decel="4.5" vClass= "taxi" id="taxi" length="5.0" minGap="2.5" maxSpeed="25" sigma="0.5" color= "yellow" />
            

            <route id="D_B" edges="E2 1011411824 724597257 26430484#0 26430484#1 26430484#2"/>
            <route id="D_K" edges="E2 724597254#0 724597254#1 724597253#0 724597253#1"/>
            <route id="K_G" edges="E3 1011411822 724597252 1099844081#0 1099844081#1 1099844081#2"/>
            <route id="K_B" edges="E3 724597257 26430484#0 26430484#1 26430484#2"/>
            <route id="B_D" edges="E4 724597252 1099844081#0 1099844081#1 1099844081#2"/>
            <route id="B_K" edges="E4 724597252 1011411823 724597254#0 724597254#1 724597253#0 724597253#1"/>
    <vehicle id="car_K_B_0" type="standard_car" route="K_B" depart="79.0" departLane="random" departSpeed="8" />
    <vehicle id="car_B_D_1" type="standard_car" route="B_D" depart="85.0" departLane="random" departSpeed="8" />
    <vehicle id="taxi_K_B_2" type="taxi" route="K_B" depart="90.0" departLane="random" departSpeed="8" />
    <vehicle id="car_K_G_3" type="standard_car" route="K_G" depart="104.0" departLane="random" departSpeed="8" />
    <vehicle id="car_B_D_4" type="standard_car" route="B_D" depart="108.0" departLane="random" departSpeed="8" />
    <vehicle id="car_D_K_5" type="standard_car" route="D_K" depart="123.0" departLane="random" departSpeed="8" />
    <vehicle id="car_K_G_6" type="standard_car" route="K_G" depart="135.0" departLane="random" departSpeed="8" />
    <vehicle id="car_D_B_7" type="standard_car" route="D_B" depart="161.0" departLane="random" departSpeed="8" />
    <vehicle id="car_K_B_8" type="standard_car" route="K_B" depart="166.0" departLane="random" departSpeed="8" />
    <vehicle id="car_D_K_9" type="standard_car" route="D_K" depart="175.0" departLane="random" departSpeed="8" />
    <vehicle id="car_K_B_10" type="standard_car" route="K_B" depart="183.0" departLane="random" departSpeed="8" />
    <vehicle id="taxi_B_D_11" type="taxi" route="B_D" depart="185.0" departLane="random" departSpeed="8" />
    <vehicle id="car_D_K_12" type="standard_car" route="D_K" depart="194.0" departLane="random" departSpeed="8" />
    <vehicle id="car_K_B_13" type="standard_car" route="K_B" depart="198.0" departLane="random" departSpeed="8" />
    <vehicle id="car_K_B_14" type="standard_car" route="K_B" depart="206.0" departLane="random" departSpeed="8" />
    <vehicle id="bus_K_B_15" type="bus" route="K_B" depart="206.0" departLane="random" departSpeed="5" />
    <vehicle id="car_D_K_16" type="standard_car" route="D_K" depart="213.0" departLane="random" departSpeed="8" />
    <vehicle id="bus_K_B_17" type="bus" route="K_B" depart="222.0" departLane="random" departSpeed="5" />
    <vehicle id="taxi_K_G_18" type="taxi" route="K_G" depart="237.0" departLane="random" departSpeed="8" />
    <vehicle id="car_B_D_19" type="standard_car" route="B_D" depart="248.0" departLane="random" departSpeed="8" />
    <vehicle id="car_K_G_20" type="standard_car" route="K_G" depart="253.0" departLane="random" departSpeed="8" />
    <vehicle id="car_K_G_21" type="standard_car" route="K_G" depart="288.0" departLane="random" departSpeed="8" />
    <vehicle id="car_K_G_22" type="standard_car" route="K_G" depart="290.0" departLane="random" departSpeed="8" />
    <vehicle id="car_K_B_23" type="standard_car" route="K_B" depart="292.0" departLane="random" departSpeed="8" />
    <vehicle id="car_K_B_24" type="standard_car" route="K_B" depart="299.0" departLane="random" departSpeed="8" />
    <vehicle id="bus_D_K_25" type="bus" route="D_K" depart="302.0" departLane="random" departSpeed="5" />
    <vehicle id="car_D_B_26" type="standard_car" route="D_B" depart="307.0" departLane="random" departSpeed="8" />
    <vehicle id="car_B_D_27" type="standard_car" route="B_D" depart="310.0" departLane="random" departSpeed="8" />
    <vehicle id="car_D_K_28" type="standard_car" route="D_K" depart="317.0" departLane="random" departSpeed="8" />
    <vehicle id="car_D_B_29" type="standard_car" route="D_B" depart="321.0" departLane="random" departSpeed="8" />
    <vehicle id="car_D_B_30" type="standard_car" route="D_B" depart="329.0" departLane="random" departSpeed="8" />
    <vehicle id="car_K_G_31" type="standard_car" route="K_G" depart="336.0" departLane="random" departSpeed="8" />
    <vehicle id="car_D_B_32" type="standard_car" route="D_B" depart="352.0" departLane="random" departSpeed="8" />
    <vehicle id="car_B_D_33" type="standard_car" route="B_D" depart="365.0" departLane="random" departSpeed="8" />
    <vehicle id="car_D_K_34" type="standard_car" route="D_K" depart="372.0" departLane="random" departSpeed="8" />
    <vehicle id="car_D_B_35" type="standard_car" route="D_B" depart="375.0" departLane="random" departSpeed="8" />
    <vehicle id="car_D_B_36" type="standard_car" route="D_B" depart="378.0" departLane="random" departSpeed="8" />
    <vehicle id="car_K_B_37" type="standard_car" route="K_B" depart="380.0" departLane="random" departSpeed="8" />
    <vehicle id="car_K_G_38" type="standard_car" route="K_G" depart="380.0" departLane="random" departSpeed="8" />
    <vehicle id="car_D_B_39" type="standard_car" route="D_B" depart="385.0" departLane="random" departSpeed="8" />
    <vehicle id="bus_D_K_40" type="bus" route="D_K" depart="389.0" departLane="random" departSpeed="5" />
    <vehicle id="car_D_K_41" type="standard_car" route="D_K" depart="395.0" departLane="random" departSpeed="8" />
    <vehicle id="car_B_D_42" type="standard_car" route="B_D" depart="403.0" departLane="random" departSpeed="8" />
    <vehicle id="bus_D_B_43" type="bus" route="D_B" depart="412.0" departLane="random" departSpeed="5" />
    <vehicle id="car_D_B_44" type="standard_car" route="D_B" depart="417.0" departLane="random" departSpeed="8" />
    <vehicle id="car_K_B_45" type="standard_car" route="K_B" depart="419.0" departLane="random" departSpeed="8" />
    <vehicle id="car_K_B_46" type="standard_car" route="K_B" depart="419.0" departLane="random" departSpeed="8" />
    <vehicle id="car_K_B_47" type="standard_car" route="K_B" depart="420.0" departLane="random" departSpeed="8" />
    <vehicle id="bus_K_G_48" type="bus" route="K_G" depart="425.0" departLane="random" departSpeed="5" />
    <vehicle id="car_B_D_49" type="standard_car" route="B_D" depart="432.0" departLane="random" departSpeed="8" />
    <vehicle id="car_D_B_50" type="standard_car" route="D_B" depart="451.0" departLane="random" departSpeed="8" />
    <vehicle id="car_K_G_51" type="standard_car" route="K_G" depart="452.0" departLane="random" departSpeed="8" />
    <vehicle id="car_B_D_52" type="standard_car" route="B_D" depart="458.0" departLane="random" departSpeed="8" />
    <vehicle id="car_K_G_53" type="standard_car" route="K_G" depart="459.0" departLane="random" departSpeed="8" />
    <vehicle id="car_D_B_54" type="standard_car" route="D_B" depart="463.0" departLane="random" departSpeed="8" />
    <vehicle id="bus_D_B_55" type="bus" route="D_B" depart="468.0" departLane="random" departSpeed="5" />
    <vehicle id="car_B_D_56" type="standard_car" route="B_D" depart="469.0" departLane="random" departSpeed="8" />
    <vehicle id="car_K_B_57" type="standard_car" route="K_B" depart="469.0" departLane="random" departSpeed="8" />
    <vehicle id="bus_K_B_58" type="bus" route="K_B" depart="473.0" departLane="random" departSpeed="5" />
    <vehicle id="bus_K_G_59" type="bus" route="K_G" depart="475.0" departLane="random" departSpeed="5" />
    <vehicle id="taxi_K_B_60" type="taxi" route="K_B" depart="478.0" departLane="random" departSpeed="8" />
    <vehicle id="car_K_G_61" type="standard_car" route="K_G" depart="480.0" departLane="random" departSpeed="8" />
    <vehicle id="car_B_D_62" type="standard_car" route="B_D" depart="484.0" departLane="random" departSpeed="8" />
    <vehicle id="bus_K_G_63" type="bus" route="K_G" depart="486.0" departLane="random" departSpeed="5" />
    <vehicle id="bus_B_D_64" type="bus" route="B_D" depart="493.0" departLane="random" departSpeed="5" />
    <vehicle id="car_D_B_65" type="standard_car" route="D_B" depart="497.0" departLane="random" departSpeed="8" />
    <vehicle id="car_D_K_66" type="standard_car" route="D_K" depart="498.0" departLane="random" departSpeed="8" />
    <vehicle id="bus_D_K_67" type="bus" route="D_K" depart="501.0" departLane="random" departSpeed="5" />
    <vehicle id="car_K_G_68" type="standard_car" route="K_G" depart="502.0" departLane="random" departSpeed="8" />
    <vehicle id="car_B_D_69" type="standard_car" route="B_D" depart="504.0" departLane="random" departSpeed="8" />
    <vehicle id="bus_D_K_70" type="bus" route="D_K" depart="517.0" departLane="random" departSpeed="5" />
    <vehicle id="car_B_D_71" type="standard_car" route="B_D" depart="519.0" departLane="random" departSpeed="8" />
    <vehicle id="car_K_G_72" type="standard_car" route="K_G" depart="523.0" departLane="random" departSpeed="8" />
    <vehicle id="car_D_K_73" type="standard_car" route="D_K" depart="527.0" departLane="random" departSpeed="8" />
    <vehicle id="car_K_B_74" type="standard_car" route="K_B" depart="530.0" departLane="random" departSpeed="8" />
    <vehicle id="car_K_G_75" type="standard_car" route="K_G" depart="534.0" departLane="random" departSpeed="8" />
    <vehicle id="bus_D_K_76" type="bus" route="D_K" depart="541.0" departLane="random" departSpeed="5" />
    <vehicle id="car_K_B_77" type="standard_car" route="K_B" depart="544.0" departLane="random" departSpeed="8" />
    <vehicle id="car_D_B_78" type="standard_car" route="D_B" depart="544.0" departLane="random" departSpeed="8" />
    <vehicle id="car_B_D_79" type="standard_car" route="B_D" depart="545.0" departLane="random" departSpeed="8" />
    <vehicle id="car_K_G_80" type="standard_car" route="K_G" depart="545.0" departLane="random" departSpeed="8" />
    <vehicle id="car_K_G_81" type="standard_car" route="K_G" depart="546.0" departLane="random" departSpeed="8" />
    <vehicle id="car_B_D_82" type="standard_car" route="B_D" depart="550.0" departLane="random" departSpeed="8" />
    <vehicle id="car_K_B_83" type="standard_car" route="K_B" depart="550.0" departLane="random" departSpeed="8" />
    <vehicle id="car_B_D_84" type="standard_car" route="B_D" depart="558.0" departLane="random" departSpeed="8" />
    <vehicle id="car_D_K_85" type="standard_car" route="D_K" depart="560.0" departLane="random" departSpeed="8" />
    <vehicle id="car_B_D_86" type="standard_car" route="B_D" depart="570.0" departLane="random" departSpeed="8" />
    <vehicle id="car_K_G_87" type="standard_car" route="K_G" depart="570.0" departLane="random" departSpeed="8" />
    <vehicle id="car_D_K_88" type="standard_car" route="D_K" depart="571.0" departLane="random" departSpeed="8" />
    <vehicle id="car_D_B_89" type="standard_car" route="D_B" depart="572.0" departLane="random" departSpeed="8" />
    <vehicle id="car_D_K_90" type="standard_car" route="D_K" depart="574.0" departLane="random" departSpeed="8" />
    <vehicle id="bus_B_D_91" type="bus" route="B_D" depart="576.0" departLane="random" departSpeed="5" />
    <vehicle id="car_D_B_92" type="standard_car" route="D_B" depart="578.0" departLane="random" departSpeed="8" />
    <vehicle id="car_D_B_93" type="standard_car" route="D_B" depart="580.0" departLane="random" departSpeed="8" />
    <vehicle id="car_D_B_94" type="standard_car" route="D_B" depart="580.0" departLane="random" departSpeed="8" />
    <vehicle id="car_B_D_95" type="standard_car" route="B_D" depart="588.0" departLane="random" departSpeed="8" />
    <vehicle id="car_K_G_96" type="standard_car" route="K_G" depart="589.0" departLane="random" departSpeed="8" />
    <vehicle id="bus_K_G_97" type="bus" route="K_G" depart="590.0" departLane="random" departSpeed="5" />
    <vehicle id="car_B_D_98" type="standard_car" route="B_D" depart="591.0" departLane="random" departSpeed="8" />
    <vehicle id="bus_D_B_99" type="bus" route="D_B" depart="592.0" departLane="random" departSpeed="5" />
    <vehicle id="car_D_K_100" type="standard_car" route="D_K" depart="593.0" departLane="random" departSpeed="8" />
    <vehicle id="car_K_B_101" type="standard_car" route="K_B" depart="598.0" departLane="random" departSpeed="8" />
    <vehicle id="car_B_D_102" type="standard_car" route="B_D" depart="601.0" departLane="random" departSpeed="8" />
    <vehicle id="bus_D_K_103" type="bus" route="D_K" depart="601.0" departLane="random" departSpeed="5" />
    <vehicle id="car_K_G_104" type="standard_car" route="K_G" depart="602.0" departLane="random" departSpeed="8" />
    <vehicle id="car_K_B_105" type="standard_car" route="K_B" depart="605.0" departLane="random" departSpeed="8" />
    <vehicle id="car_K_B_106" type="standard_car" route="K_B" depart="606.0" departLane="random" departSpeed="8" />
    <vehicle id="car_K_G_107" type="standard_car" route="K_G" depart="613.0" departLane="random" departSpeed="8" />
    <vehicle id="car_K_G_108" type="standard_car" route="K_G" depart="613.0" departLane="random" departSpeed="8" />
    <vehicle id="car_B_D_109" type="standard_car" route="B_D" depart="616.0" departLane="random" departSpeed="8" />
    <vehicle id="car_K_G_110" type="standard_car" route="K_G" depart="622.0" departLane="random" departSpeed="8" />
    <vehicle id="car_K_B_111" type="standard_car" route="K_B" depart="623.0" departLane="random" departSpeed="8" />
    <vehicle id="bus_B_D_112" type="bus" route="B_D" depart="623.0" departLane="random" departSpeed="5" />
    <vehicle id="car_K_B_113" type="standard_car" route="K_B" depart="625.0" departLane="random" departSpeed="8" />
    <vehicle id="bus_B_D_114" type="bus" route="B_D" depart="635.0" departLane="random" departSpeed="5" />
    <vehicle id="taxi_B_D_115" type="taxi" route="B_D" depart="641.0" departLane="random" departSpeed="8" />
    <vehicle id="taxi_D_B_116" type="taxi" route="D_B" depart="643.0" departLane="random" departSpeed="8" />
    <vehicle id="car_K_G_117" type="standard_car" route="K_G" depart="644.0" departLane="random" departSpeed="8" />
    <vehicle id="car_K_G_118" type="standard_car" route="K_G" depart="647.0" departLane="random" departSpeed="8" />
    <vehicle id="bus_K_B_119" type="bus" route="K_B" depart="648.0" departLane="random" departSpeed="5" />
    <vehicle id="bus_B_D_120" type="bus" route="B_D" depart="648.0" departLane="random" departSpeed="5" />
    <vehicle id="car_D_K_121" type="standard_car" route="D_K" depart="660.0" departLane="random" departSpeed="8" />
    <vehicle id="bus_B_D_122" type="bus" route="B_D" depart="661.0" departLane="random" departSpeed="5" />
    <vehicle id="car_K_G_123" type="standard_car" route="K_G" depart="661.0" departLane="random" departSpeed="8" />
    <vehicle id="car_D_K_124" type="standard_car" route="D_K" depart="663.0" departLane="random" departSpeed="8" />
    <vehicle id="bus_K_G_125" type="bus" route="K_G" depart="664.0" departLane="random" departSpeed="5" />
    <vehicle id="car_D_K_126" type="standard_car" route="D_K" depart="671.0" departLane="random" departSpeed="8" />
    <vehicle id="car_D_B_127" type="standard_car" route="D_B" depart="675.0" departLane="random" departSpeed="8" />
    <vehicle id="taxi_K_G_128" type="taxi" route="K_G" depart="676.0" departLane="random" departSpeed="8" />
    <vehicle id="car_K_B_129" type="standard_car" route="K_B" depart="683.0" departLane="random" departSpeed="8" />
    <vehicle id="car_K_G_130" type="standard_car" route="K_G" depart="684.0" departLane="random" departSpeed="8" />
    <vehicle id="car_K_G_131" type="standard_car" route="K_G" depart="684.0" departLane="random" departSpeed="8" />
    <vehicle id="car_D_K_132" type="standard_car" route="D_K" depart="685.0" departLane="random" departSpeed="8" />
    <vehicle id="taxi_D_B_133" type="taxi" route="D_B" depart="691.0" departLane="random" departSpeed="8" />
    <vehicle id="taxi_D_B_134" type="taxi" route="D_B" depart="691.0" departLane="random" departSpeed="8" />
    <vehicle id="car_B_D_135" type="standard_car" route="B_D" depart="697.0" departLane="random" departSpeed="8" />
    <vehicle id="car_B_D_136" type="standard_car" route="B_D" depart="698.0" departLane="random" departSpeed="8" />
    <vehicle id="car_K_B_137" type="standard_car" route="K_B" depart="700.0" departLane="random" departSpeed="8" />
    <vehicle id="car_D_B_138" type="standard_car" route="D_B" depart="701.0" departLane="random" departSpeed="8" />
    <vehicle id="car_B_D_139" type="standard_car" route="B_D" depart="703.0" departLane="random" departSpeed="8" />
    <vehicle id="bus_K_B_140" type="bus" route="K_B" depart="720.0" departLane="random" departSpeed="5" />
    <vehicle id="car_D_K_141" type="standard_car" route="D_K" depart="726.0" departLane="random" departSpeed="8" />
    <vehicle id="car_D_K_142" type="standard_car" route="D_K" depart="736.0" departLane="random" departSpeed="8" />
    <vehicle id="taxi_D_B_143" type="taxi" route="D_B" depart="736.0" departLane="random" departSpeed="8" />
    <vehicle id="car_D_K_144" type="standard_car" route="D_K" depart="739.0" departLane="random" departSpeed="8" />
    <vehicle id="bus_B_D_145" type="bus" route="B_D" depart="741.0" departLane="random" departSpeed="5" />
    <vehicle id="car_K_B_146" type="standard_car" route="K_B" depart="746.0" departLane="random" departSpeed="8" />
    <vehicle id="car_B_D_147" type="standard_car" route="B_D" depart="747.0" departLane="random" departSpeed="8" />
    <vehicle id="taxi_D_B_148" type="taxi" route="D_B" depart="747.0" departLane="random" departSpeed="8" />
    <vehicle id="bus_B_D_149" type="bus" route="B_D" depart="752.0" departLane="random" departSpeed="5" />
    <vehicle id="car_D_K_150" type="standard_car" route="D_K" depart="754.0" departLane="random" departSpeed="8" />
    <vehicle id="car_D_K_151" type="standard_car" route="D_K" depart="755.0" departLane="random" departSpeed="8" />
    <vehicle id="taxi_K_G_152" type="taxi" route="K_G" depart="757.0" departLane="random" departSpeed="8" />
    <vehicle id="car_D_B_153" type="standard_car" route="D_B" depart="757.0" departLane="random" departSpeed="8" />
    <vehicle id="car_K_B_154" type="standard_car" route="K_B" depart="758.0" departLane="random" departSpeed="8" />
    <vehicle id="car_K_G_155" type="standard_car" route="K_G" depart="763.0" departLane="random" departSpeed="8" />
    <vehicle id="car_D_K_156" type="standard_car" route="D_K" depart="764.0" departLane="random" departSpeed="8" />
    <vehicle id="car_B_D_157" type="standard_car" route="B_D" depart="772.0" departLane="random" departSpeed="8" />
    <vehicle id="taxi_K_G_158" type="taxi" route="K_G" depart="774.0" departLane="random" departSpeed="8" />
    <vehicle id="car_K_G_159" type="standard_car" route="K_G" depart="775.0" departLane="random" departSpeed="8" />
    <vehicle id="car_D_B_160" type="standard_car" route="D_B" depart="777.0" departLane="random" departSpeed="8" />
    <vehicle id="bus_K_G_161" type="bus" route="K_G" depart="778.0" departLane="random" departSpeed="5" />
    <vehicle id="car_D_K_162" type="standard_car" route="D_K" depart="779.0" departLane="random" departSpeed="8" />
    <vehicle id="bus_D_K_163" type="bus" route="D_K" depart="782.0" departLane="random" departSpeed="5" />
    <vehicle id="bus_K_B_164" type="bus" route="K_B" depart="782.0" departLane="random" departSpeed="5" />
    <vehicle id="bus_D_K_165" type="bus" route="D_K" depart="787.0" departLane="random" departSpeed="5" />
    <vehicle id="taxi_D_B_166" type="taxi" route="D_B" depart="791.0" departLane="random" departSpeed="8" />
    <vehicle id="car_D_K_167" type="standard_car" route="D_K" depart="791.0" departLane="random" departSpeed="8" />
    <vehicle id="bus_D_K_168" type="bus" route="D_K" depart="794.0" departLane="random" departSpeed="5" />
    <vehicle id="car_B_D_169" type="standard_car" route="B_D" depart="796.0" departLane="random" departSpeed="8" />
    <vehicle id="bus_B_D_170" type="bus" route="B_D" depart="798.0" departLane="random" departSpeed="5" />
    <vehicle id="car_K_B_171" type="standard_car" route="K_B" depart="801.0" departLane="random" departSpeed="8" />
    <vehicle id="car_K_B_172" type="standard_car" route="K_B" depart="802.0" departLane="random" departSpeed="8" />
    <vehicle id="car_K_G_173" type="standard_car" route="K_G" depart="803.0" departLane="random" departSpeed="8" />
    <vehicle id="car_K_G_174" type="standard_car" route="K_G" depart="805.0" departLane="random" departSpeed="8" />
    <vehicle id="bus_D_K_175" type="bus" route="D_K" depart="805.0" departLane="random" departSpeed="5" />
    <vehicle id="car_B_D_176" type="standard_car" route="B_D" depart="805.0" departLane="random" departSpeed="8" />
    <vehicle id="car_B_D_177" type="standard_car" route="B_D" depart="807.0" departLane="random" departSpeed="8" />
    <vehicle id="car_D_B_178" type="standard_car" route="D_B" depart="813.0" departLane="random" departSpeed="8" />
    <vehicle id="car_D_K_179" type="standard_car" route="D_K" depart="813.0" departLane="random" departSpeed="8" />
    <vehicle id="car_D_K_180" type="standard_car" route="D_K" depart="815.0" departLane="random" departSpeed="8" />
    <vehicle id="car_K_G_181" type="standard_car" route="K_G" depart="815.0" departLane="random" departSpeed="8" />
    <vehicle id="car_K_G_182" type="standard_car" route="K_G" depart="818.0" departLane="random" departSpeed="8" />
    <vehicle id="car_K_G_183" type="standard_car" route="K_G" depart="820.0" departLane="random" departSpeed="8" />
    <vehicle id="car_K_B_184" type="standard_car" route="K_B" depart="836.0" departLane="random" departSpeed="8" />
    <vehicle id="car_D_B_185" type="standard_car" route="D_B" depart="838.0" departLane="random" departSpeed="8" />
    <vehicle id="car_K_G_186" type="standard_car" route="K_G" depart="838.0" departLane="random" departSpeed="8" />
    <vehicle id="car_B_D_187" type="standard_car" route="B_D" depart="842.0" departLane="random" departSpeed="8" />
    <vehicle id="bus_K_B_188" type="bus" route="K_B" depart="843.0" departLane="random" departSpeed="5" />
    <vehicle id="bus_D_K_189" type="bus" route="D_K" depart="843.0" departLane="random" departSpeed="5" />
    <vehicle id="car_B_D_190" type="standard_car" route="B_D" depart="846.0" departLane="random" departSpeed="8" />
    <vehicle id="car_B_D_191" type="standard_car" route="B_D" depart="846.0" departLane="random" departSpeed="8" />
    <vehicle id="bus_K_B_192" type="bus" route="K_B" depart="846.0" departLane="random" departSpeed="5" />
    <vehicle id="car_K_G_193" type="standard_car" route="K_G" depart="847.0" departLane="random" departSpeed="8" />
    <vehicle id="car_B_D_194" type="standard_car" route="B_D" depart="848.0" departLane="random" departSpeed="8" />
    <vehicle id="car_D_B_195" type="standard_car" route="D_B" depart="851.0" departLane="random" departSpeed="8" />
    <vehicle id="car_D_K_196" type="standard_car" route="D_K" depart="852.0" departLane="random" departSpeed="8" />
    <vehicle id="bus_B_D_197" type="bus" route="B_D" depart="854.0" departLane="random" departSpeed="5" />
    <vehicle id="taxi_K_B_198" type="taxi" route="K_B" depart="856.0" departLane="random" departSpeed="8" />
    <vehicle id="car_D_K_199" type="standard_car" route="D_K" depart="857.0" departLane="random" departSpeed="8" />
    <vehicle id="car_B_D_200" type="standard_car" route="B_D" depart="857.0" departLane="random" departSpeed="8" />
    <vehicle id="car_D_K_201" type="standard_car" route="D_K" depart="859.0" departLane="random" departSpeed="8" />
    <vehicle id="car_K_B_202" type="standard_car" route="K_B" depart="861.0" departLane="random" departSpeed="8" />
    <vehicle id="bus_B_D_203" type="bus" route="B_D" depart="864.0" departLane="random" departSpeed="5" />
    <vehicle id="car_K_G_204" type="standard_car" route="K_G" depart="865.0" departLane="random" departSpeed="8" />
    <vehicle id="car_D_B_205" type="standard_car" route="D_B" depart="867.0" departLane="random" departSpeed="8" />
    <vehicle id="bus_K_B_206" type="bus" route="K_B" depart="867.0" departLane="random" departSpeed="5" />
    <vehicle id="car_K_B_207" type="standard_car" route="K_B" depart="869.0" departLane="random" departSpeed="8" />
    <vehicle id="car_K_B_208" type="standard_car" route="K_B" depart="870.0" departLane="random" departSpeed="8" />
    <vehicle id="taxi_K_B_209" type="taxi" route="K_B" depart="876.0" departLane="random" departSpeed="8" />
    <vehicle id="car_B_D_210" type="standard_car" route="B_D" depart="878.0" departLane="random" departSpeed="8" />
    <vehicle id="car_K_G_211" type="standard_car" route="K_G" depart="883.0" departLane="random" departSpeed="8" />
    <vehicle id="car_D_B_212" type="standard_car" route="D_B" depart="884.0" departLane="random" departSpeed="8" />
    <vehicle id="taxi_D_K_213" type="taxi" route="D_K" depart="885.0" departLane="random" departSpeed="8" />
    <vehicle id="car_D_K_214" type="standard_car" route="D_K" depart="885.0" departLane="random" departSpeed="8" />
    <vehicle id="car_K_G_215" type="standard_car" route="K_G" depart="887.0" departLane="random" departSpeed="8" />
    <vehicle id="bus_D_B_216" type="bus" route="D_B" depart="888.0" departLane="random" departSpeed="5" />
    <vehicle id="car_D_B_217" type="standard_car" route="D_B" depart="890.0" departLane="random" departSpeed="8" />
    <vehicle id="car_K_G_218" type="standard_car" route="K_G" depart="891.0" departLane="random" departSpeed="8" />
    <vehicle id="bus_K_B_219" type="bus" route="K_B" depart="894.0" departLane="random" departSpeed="5" />
    <vehicle id="bus_D_K_220" type="bus" route="D_K" depart="894.0" departLane="random" departSpeed="5" />
    <vehicle id="car_D_B_221" type="standard_car" route="D_B" depart="894.0" departLane="random" departSpeed="8" />
    <vehicle id="car_B_D_222" type="standard_car" route="B_D" depart="898.0" departLane="random" departSpeed="8" />
    <vehicle id="car_K_G_223" type="standard_car" route="K_G" depart="898.0" departLane="random" departSpeed="8" />
    <vehicle id="car_D_K_224" type="standard_car" route="D_K" depart="898.0" departLane="random" departSpeed="8" />
    <vehicle id="car_B_D_225" type="standard_car" route="B_D" depart="899.0" departLane="random" departSpeed="8" />
    <vehicle id="car_D_B_226" type="standard_car" route="D_B" depart="899.0" departLane="random" departSpeed="8" />
    <vehicle id="car_K_G_227" type="standard_car" route="K_G" depart="902.0" departLane="random" departSpeed="8" />
    <vehicle id="bus_D_K_228" type="bus" route="D_K" depart="906.0" departLane="random" departSpeed="5" />
    <vehicle id="car_K_G_229" type="standard_car" route="K_G" depart="907.0" departLane="random" departSpeed="8" />
    <vehicle id="car_K_B_230" type="standard_car" route="K_B" depart="909.0" departLane="random" departSpeed="8" />
    <vehicle id="bus_D_B_231" type="bus" route="D_B" depart="911.0" departLane="random" departSpeed="5" />
    <vehicle id="car_K_G_232" type="standard_car" route="K_G" depart="916.0" departLane="random" departSpeed="8" />
    <vehicle id="car_K_B_233" type="standard_car" route="K_B" depart="916.0" departLane="random" departSpeed="8" />
    <vehicle id="bus_D_K_234" type="bus" route="D_K" depart="917.0" departLane="random" departSpeed="5" />
    <vehicle id="car_K_G_235" type="standard_car" route="K_G" depart="919.0" departLane="random" departSpeed="8" />
    <vehicle id="bus_K_B_236" type="bus" route="K_B" depart="924.0" departLane="random" departSpeed="5" />
    <vehicle id="taxi_D_K_237" type="taxi" route="D_K" depart="925.0" departLane="random" departSpeed="8" />
    <vehicle id="car_D_B_238" type="standard_car" route="D_B" depart="927.0" departLane="random" departSpeed="8" />
    <vehicle id="car_K_G_239" type="standard_car" route="K_G" depart="928.0" departLane="random" departSpeed="8" />
    <vehicle id="car_K_G_240" type="standard_car" route="K_G" depart="933.0" departLane="random" departSpeed="8" />
    <vehicle id="car_D_B_241" type="standard_car" route="D_B" depart="939.0" departLane="random" departSpeed="8" />
    <vehicle id="car_B_D_242" type="standard_car" route="B_D" depart="940.0" departLane="random" departSpeed="8" />
    <vehicle id="car_K_G_243" type="standard_car" route="K_G" depart="944.0" departLane="random" departSpeed="8" />
    <vehicle id="car_D_K_244" type="standard_car" route="D_K" depart="949.0" departLane="random" departSpeed="8" />
    <vehicle id="car_D_B_245" type="standard_car" route="D_B" depart="950.0" departLane="random" departSpeed="8" />
    <vehicle id="car_B_D_246" type="standard_car" route="B_D" depart="950.0" departLane="random" departSpeed="8" />
    <vehicle id="car_B_D_247" type="standard_car" route="B_D" depart="950.0" departLane="random" departSpeed="8" />
    <vehicle id="taxi_B_D_248" type="taxi" route="B_D" depart="951.0" departLane="random" departSpeed="8" />
    <vehicle id="car_D_B_249" type="standard_car" route="D_B" depart="954.0" departLane="random" departSpeed="8" />
    <vehicle id="car_K_G_250" type="standard_car" route="K_G" depart="956.0" departLane="random" departSpeed="8" />
    <vehicle id="car_D_K_251" type="standard_car" route="D_K" depart="957.0" departLane="random" departSpeed="8" />
    <vehicle id="car_K_G_252" type="standard_car" route="K_G" depart="959.0" departLane="random" departSpeed="8" />
    <vehicle id="car_K_B_253" type="standard_car" route="K_B" depart="960.0" departLane="random" departSpeed="8" />
    <vehicle id="car_K_G_254" type="standard_car" route="K_G" depart="961.0" departLane="random" departSpeed="8" />