<configuration>

<input>
<net-file value = "sehrekustu.net.xml" />
<route-files value = "sehrekustu.rou.xml" />
</input>

<time>
<begin value = "0" />
<end value = "2000" />
</time>

</configuration>