<routes>
            <vType accel="1.0" decel="4.5" vClass= "passenger" id="standard_car" length="5.0" minGap="2.5" maxSpeed="25" sigma="0.5" color= "cyan" />
            <vType accel="1.0" decel="4.5" vClass= "bus" id="bus" length="10.0" minGap="2.5" maxSpeed="15" sigma="0.5" color= "red" />
            <vType accel="1.0" decel="4.5" vClass= "taxi" id="taxi" length="5.0" minGap="2.5" maxSpeed="25" sigma="0.5" color= "yellow" />
            

            <route id="D_B" edges="E2 1011411824 724597257 26430484#0 26430484#1 26430484#2"/>
            <route id="D_K" edges="E2 724597254#0 724597254#1 724597253#0 724597253#1"/>
            <route id="K_G" edges="E3 1011411822 724597252 1099844081#0 1099844081#1 1099844081#2"/>
            <route id="K_B" edges="E3 724597257 26430484#0 26430484#1 26430484#2"/>
            <route id="B_D" edges="E4 724597252 1099844081#0 1099844081#1 1099844081#2"/>
            <route id="B_K" edges="E4 724597252 1011411823 724597254#0 724597254#1 724597253#0 724597253#1"/>
    <vehicle id="car_B_D_0" type="standard_car" route="B_D" depart="19.0" departLane="random" departSpeed="8" />
    <vehicle id="bus_K_B_1" type="bus" route="K_B" depart="36.0" departLane="random" departSpeed="5" />
    <vehicle id="car_K_G_2" type="standard_car" route="K_G" depart="97.0" departLane="random" departSpeed="8" />
    <vehicle id="car_D_B_3" type="standard_car" route="D_B" depart="99.0" departLane="random" departSpeed="8" />
    <vehicle id="car_D_B_4" type="standard_car" route="D_B" depart="101.0" departLane="random" departSpeed="8" />
    <vehicle id="bus_D_K_5" type="bus" route="D_K" depart="111.0" departLane="random" departSpeed="5" />
    <vehicle id="bus_B_D_6" type="bus" route="B_D" depart="130.0" departLane="random" departSpeed="5" />
    <vehicle id="car_D_B_7" type="standard_car" route="D_B" depart="161.0" departLane="random" departSpeed="8" />
    <vehicle id="bus_D_B_8" type="bus" route="D_B" depart="171.0" departLane="random" departSpeed="5" />
    <vehicle id="car_D_B_9" type="standard_car" route="D_B" depart="174.0" departLane="random" departSpeed="8" />
    <vehicle id="bus_D_K_10" type="bus" route="D_K" depart="184.0" departLane="random" departSpeed="5" />
    <vehicle id="car_D_K_11" type="standard_car" route="D_K" depart="188.0" departLane="random" departSpeed="8" />
    <vehicle id="taxi_K_B_12" type="taxi" route="K_B" depart="202.0" departLane="random" departSpeed="8" />
    <vehicle id="car_D_K_13" type="standard_car" route="D_K" depart="203.0" departLane="random" departSpeed="8" />
    <vehicle id="car_K_B_14" type="standard_car" route="K_B" depart="207.0" departLane="random" departSpeed="8" />
    <vehicle id="bus_K_B_15" type="bus" route="K_B" depart="212.0" departLane="random" departSpeed="5" />
    <vehicle id="car_D_B_16" type="standard_car" route="D_B" depart="213.0" departLane="random" departSpeed="8" />
    <vehicle id="car_D_B_17" type="standard_car" route="D_B" depart="214.0" departLane="random" departSpeed="8" />
    <vehicle id="car_D_K_18" type="standard_car" route="D_K" depart="221.0" departLane="random" departSpeed="8" />
    <vehicle id="car_K_B_19" type="standard_car" route="K_B" depart="225.0" departLane="random" departSpeed="8" />
    <vehicle id="taxi_D_B_20" type="taxi" route="D_B" depart="227.0" departLane="random" departSpeed="8" />
    <vehicle id="car_D_B_21" type="standard_car" route="D_B" depart="233.0" departLane="random" departSpeed="8" />
    <vehicle id="car_K_B_22" type="standard_car" route="K_B" depart="234.0" departLane="random" departSpeed="8" />
    <vehicle id="bus_K_B_23" type="bus" route="K_B" depart="245.0" departLane="random" departSpeed="5" />
    <vehicle id="car_K_G_24" type="standard_car" route="K_G" depart="245.0" departLane="random" departSpeed="8" />
    <vehicle id="car_D_K_25" type="standard_car" route="D_K" depart="246.0" departLane="random" departSpeed="8" />
    <vehicle id="car_D_K_26" type="standard_car" route="D_K" depart="247.0" departLane="random" departSpeed="8" />
    <vehicle id="car_K_B_27" type="standard_car" route="K_B" depart="252.0" departLane="random" departSpeed="8" />
    <vehicle id="car_D_B_28" type="standard_car" route="D_B" depart="254.0" departLane="random" departSpeed="8" />
    <vehicle id="car_D_B_29" type="standard_car" route="D_B" depart="255.0" departLane="random" departSpeed="8" />
    <vehicle id="car_B_D_30" type="standard_car" route="B_D" depart="266.0" departLane="random" departSpeed="8" />
    <vehicle id="bus_B_D_31" type="bus" route="B_D" depart="271.0" departLane="random" departSpeed="5" />
    <vehicle id="car_D_B_32" type="standard_car" route="D_B" depart="274.0" departLane="random" departSpeed="8" />
    <vehicle id="car_D_B_33" type="standard_car" route="D_B" depart="291.0" departLane="random" departSpeed="8" />
    <vehicle id="car_K_G_34" type="standard_car" route="K_G" depart="293.0" departLane="random" departSpeed="8" />
    <vehicle id="car_D_K_35" type="standard_car" route="D_K" depart="293.0" departLane="random" departSpeed="8" />
    <vehicle id="car_K_G_36" type="standard_car" route="K_G" depart="296.0" departLane="random" departSpeed="8" />
    <vehicle id="bus_K_G_37" type="bus" route="K_G" depart="299.0" departLane="random" departSpeed="5" />
    <vehicle id="car_B_D_38" type="standard_car" route="B_D" depart="300.0" departLane="random" departSpeed="8" />
    <vehicle id="car_D_K_39" type="standard_car" route="D_K" depart="301.0" departLane="random" departSpeed="8" />
    <vehicle id="car_B_D_40" type="standard_car" route="B_D" depart="302.0" departLane="random" departSpeed="8" />
    <vehicle id="car_K_G_41" type="standard_car" route="K_G" depart="305.0" departLane="random" departSpeed="8" />
    <vehicle id="car_D_B_42" type="standard_car" route="D_B" depart="306.0" departLane="random" departSpeed="8" />
    <vehicle id="car_D_B_43" type="standard_car" route="D_B" depart="316.0" departLane="random" departSpeed="8" />
    <vehicle id="car_B_D_44" type="standard_car" route="B_D" depart="319.0" departLane="random" departSpeed="8" />
    <vehicle id="car_D_B_45" type="standard_car" route="D_B" depart="320.0" departLane="random" departSpeed="8" />
    <vehicle id="car_B_D_46" type="standard_car" route="B_D" depart="326.0" departLane="random" departSpeed="8" />
    <vehicle id="taxi_D_B_47" type="taxi" route="D_B" depart="327.0" departLane="random" departSpeed="8" />
    <vehicle id="car_D_B_48" type="standard_car" route="D_B" depart="338.0" departLane="random" departSpeed="8" />
    <vehicle id="car_D_B_49" type="standard_car" route="D_B" depart="350.0" departLane="random" departSpeed="8" />
    <vehicle id="car_D_K_50" type="standard_car" route="D_K" depart="359.0" departLane="random" departSpeed="8" />
    <vehicle id="car_D_B_51" type="standard_car" route="D_B" depart="362.0" departLane="random" departSpeed="8" />
    <vehicle id="bus_K_B_52" type="bus" route="K_B" depart="380.0" departLane="random" departSpeed="5" />
    <vehicle id="bus_K_G_53" type="bus" route="K_G" depart="384.0" departLane="random" departSpeed="5" />
    <vehicle id="car_K_B_54" type="standard_car" route="K_B" depart="386.0" departLane="random" departSpeed="8" />
    <vehicle id="car_D_B_55" type="standard_car" route="D_B" depart="399.0" departLane="random" departSpeed="8" />
    <vehicle id="taxi_D_K_56" type="taxi" route="D_K" depart="407.0" departLane="random" departSpeed="8" />
    <vehicle id="car_D_K_57" type="standard_car" route="D_K" depart="420.0" departLane="random" departSpeed="8" />
    <vehicle id="car_B_D_58" type="standard_car" route="B_D" depart="422.0" departLane="random" departSpeed="8" />
    <vehicle id="car_D_B_59" type="standard_car" route="D_B" depart="424.0" departLane="random" departSpeed="8" />
    <vehicle id="car_K_B_60" type="standard_car" route="K_B" depart="433.0" departLane="random" departSpeed="8" />
    <vehicle id="car_B_D_61" type="standard_car" route="B_D" depart="436.0" departLane="random" departSpeed="8" />
    <vehicle id="car_K_B_62" type="standard_car" route="K_B" depart="436.0" departLane="random" departSpeed="8" />
    <vehicle id="bus_D_K_63" type="bus" route="D_K" depart="439.0" departLane="random" departSpeed="5" />
    <vehicle id="bus_K_B_64" type="bus" route="K_B" depart="441.0" departLane="random" departSpeed="5" />
    <vehicle id="car_D_K_65" type="standard_car" route="D_K" depart="447.0" departLane="random" departSpeed="8" />
    <vehicle id="car_K_G_66" type="standard_car" route="K_G" depart="452.0" departLane="random" departSpeed="8" />
    <vehicle id="bus_B_D_67" type="bus" route="B_D" depart="466.0" departLane="random" departSpeed="5" />
    <vehicle id="car_D_K_68" type="standard_car" route="D_K" depart="468.0" departLane="random" departSpeed="8" />
    <vehicle id="car_K_G_69" type="standard_car" route="K_G" depart="470.0" departLane="random" departSpeed="8" />
    <vehicle id="car_B_D_70" type="standard_car" route="B_D" depart="470.0" departLane="random" departSpeed="8" />
    <vehicle id="car_D_K_71" type="standard_car" route="D_K" depart="472.0" departLane="random" departSpeed="8" />
    <vehicle id="car_D_B_72" type="standard_car" route="D_B" depart="472.0" departLane="random" departSpeed="8" />
    <vehicle id="car_D_K_73" type="standard_car" route="D_K" depart="473.0" departLane="random" departSpeed="8" />
    <vehicle id="car_D_B_74" type="standard_car" route="D_B" depart="477.0" departLane="random" departSpeed="8" />
    <vehicle id="car_K_B_75" type="standard_car" route="K_B" depart="478.0" departLane="random" departSpeed="8" />
    <vehicle id="car_K_G_76" type="standard_car" route="K_G" depart="485.0" departLane="random" departSpeed="8" />
    <vehicle id="bus_K_G_77" type="bus" route="K_G" depart="486.0" departLane="random" departSpeed="5" />
    <vehicle id="car_K_B_78" type="standard_car" route="K_B" depart="488.0" departLane="random" departSpeed="8" />
    <vehicle id="car_K_B_79" type="standard_car" route="K_B" depart="492.0" departLane="random" departSpeed="8" />
    <vehicle id="taxi_K_B_80" type="taxi" route="K_B" depart="492.0" departLane="random" departSpeed="8" />
    <vehicle id="bus_K_B_81" type="bus" route="K_B" depart="506.0" departLane="random" departSpeed="5" />
    <vehicle id="car_D_B_82" type="standard_car" route="D_B" depart="507.0" departLane="random" departSpeed="8" />
    <vehicle id="car_B_D_83" type="standard_car" route="B_D" depart="512.0" departLane="random" departSpeed="8" />
    <vehicle id="car_K_G_84" type="standard_car" route="K_G" depart="514.0" departLane="random" departSpeed="8" />
    <vehicle id="car_D_K_85" type="standard_car" route="D_K" depart="518.0" departLane="random" departSpeed="8" />
    <vehicle id="car_D_B_86" type="standard_car" route="D_B" depart="520.0" departLane="random" departSpeed="8" />
    <vehicle id="car_K_G_87" type="standard_car" route="K_G" depart="522.0" departLane="random" departSpeed="8" />
    <vehicle id="car_K_G_88" type="standard_car" route="K_G" depart="525.0" departLane="random" departSpeed="8" />
    <vehicle id="car_D_B_89" type="standard_car" route="D_B" depart="531.0" departLane="random" departSpeed="8" />
    <vehicle id="car_D_B_90" type="standard_car" route="D_B" depart="537.0" departLane="random" departSpeed="8" />
    <vehicle id="bus_D_K_91" type="bus" route="D_K" depart="545.0" departLane="random" departSpeed="5" />
    <vehicle id="taxi_D_B_92" type="taxi" route="D_B" depart="560.0" departLane="random" departSpeed="8" />
    <vehicle id="car_D_B_93" type="standard_car" route="D_B" depart="564.0" departLane="random" departSpeed="8" />
    <vehicle id="car_K_G_94" type="standard_car" route="K_G" depart="566.0" departLane="random" departSpeed="8" />
    <vehicle id="car_K_B_95" type="standard_car" route="K_B" depart="579.0" departLane="random" departSpeed="8" />
    <vehicle id="car_D_K_96" type="standard_car" route="D_K" depart="580.0" departLane="random" departSpeed="8" />
    <vehicle id="car_D_B_97" type="standard_car" route="D_B" depart="590.0" departLane="random" departSpeed="8" />
    <vehicle id="car_K_G_98" type="standard_car" route="K_G" depart="591.0" departLane="random" departSpeed="8" />
    <vehicle id="taxi_D_K_99" type="taxi" route="D_K" depart="594.0" departLane="random" departSpeed="8" />
    <vehicle id="car_K_G_100" type="standard_car" route="K_G" depart="595.0" departLane="random" departSpeed="8" />
    <vehicle id="bus_B_D_101" type="bus" route="B_D" depart="604.0" departLane="random" departSpeed="5" />
    <vehicle id="car_B_D_102" type="standard_car" route="B_D" depart="607.0" departLane="random" departSpeed="8" />
    <vehicle id="car_K_G_103" type="standard_car" route="K_G" depart="607.0" departLane="random" departSpeed="8" />
    <vehicle id="car_D_K_104" type="standard_car" route="D_K" depart="609.0" departLane="random" departSpeed="8" />
    <vehicle id="bus_K_B_105" type="bus" route="K_B" depart="612.0" departLane="random" departSpeed="5" />
    <vehicle id="taxi_K_B_106" type="taxi" route="K_B" depart="613.0" departLane="random" departSpeed="8" />
    <vehicle id="car_D_K_107" type="standard_car" route="D_K" depart="617.0" departLane="random" departSpeed="8" />
    <vehicle id="car_B_D_108" type="standard_car" route="B_D" depart="617.0" departLane="random" departSpeed="8" />
    <vehicle id="bus_K_B_109" type="bus" route="K_B" depart="624.0" departLane="random" departSpeed="5" />
    <vehicle id="car_K_G_110" type="standard_car" route="K_G" depart="626.0" departLane="random" departSpeed="8" />
    <vehicle id="bus_K_G_111" type="bus" route="K_G" depart="628.0" departLane="random" departSpeed="5" />
    <vehicle id="car_D_B_112" type="standard_car" route="D_B" depart="642.0" departLane="random" departSpeed="8" />
    <vehicle id="car_K_B_113" type="standard_car" route="K_B" depart="646.0" departLane="random" departSpeed="8" />
    <vehicle id="car_D_K_114" type="standard_car" route="D_K" depart="647.0" departLane="random" departSpeed="8" />
    <vehicle id="car_K_G_115" type="standard_car" route="K_G" depart="655.0" departLane="random" departSpeed="8" />
    <vehicle id="car_K_B_116" type="standard_car" route="K_B" depart="656.0" departLane="random" departSpeed="8" />
    <vehicle id="car_K_B_117" type="standard_car" route="K_B" depart="657.0" departLane="random" departSpeed="8" />
    <vehicle id="taxi_D_B_118" type="taxi" route="D_B" depart="657.0" departLane="random" departSpeed="8" />
    <vehicle id="car_K_B_119" type="standard_car" route="K_B" depart="660.0" departLane="random" departSpeed="8" />
    <vehicle id="bus_B_D_120" type="bus" route="B_D" depart="661.0" departLane="random" departSpeed="5" />
    <vehicle id="car_D_K_121" type="standard_car" route="D_K" depart="661.0" departLane="random" departSpeed="8" />
    <vehicle id="car_D_K_122" type="standard_car" route="D_K" depart="672.0" departLane="random" departSpeed="8" />
    <vehicle id="car_D_K_123" type="standard_car" route="D_K" depart="673.0" departLane="random" departSpeed="8" />
    <vehicle id="car_B_D_124" type="standard_car" route="B_D" depart="674.0" departLane="random" departSpeed="8" />
    <vehicle id="car_D_B_125" type="standard_car" route="D_B" depart="677.0" departLane="random" departSpeed="8" />
    <vehicle id="car_B_D_126" type="standard_car" route="B_D" depart="678.0" departLane="random" departSpeed="8" />
    <vehicle id="car_K_B_127" type="standard_car" route="K_B" depart="684.0" departLane="random" departSpeed="8" />
    <vehicle id="car_K_G_128" type="standard_car" route="K_G" depart="686.0" departLane="random" departSpeed="8" />
    <vehicle id="car_K_G_129" type="standard_car" route="K_G" depart="687.0" departLane="random" departSpeed="8" />
    <vehicle id="car_D_K_130" type="standard_car" route="D_K" depart="689.0" departLane="random" departSpeed="8" />
    <vehicle id="bus_D_B_131" type="bus" route="D_B" depart="691.0" departLane="random" departSpeed="5" />
    <vehicle id="car_K_B_132" type="standard_car" route="K_B" depart="692.0" departLane="random" departSpeed="8" />
    <vehicle id="car_K_G_133" type="standard_car" route="K_G" depart="693.0" departLane="random" departSpeed="8" />
    <vehicle id="car_D_B_134" type="standard_car" route="D_B" depart="695.0" departLane="random" departSpeed="8" />
    <vehicle id="car_K_B_135" type="standard_car" route="K_B" depart="697.0" departLane="random" departSpeed="8" />
    <vehicle id="car_K_B_136" type="standard_car" route="K_B" depart="700.0" departLane="random" departSpeed="8" />
    <vehicle id="car_B_D_137" type="standard_car" route="B_D" depart="705.0" departLane="random" departSpeed="8" />
    <vehicle id="taxi_B_D_138" type="taxi" route="B_D" depart="706.0" departLane="random" departSpeed="8" />
    <vehicle id="car_B_D_139" type="standard_car" route="B_D" depart="707.0" departLane="random" departSpeed="8" />
    <vehicle id="car_D_B_140" type="standard_car" route="D_B" depart="707.0" departLane="random" departSpeed="8" />
    <vehicle id="car_K_G_141" type="standard_car" route="K_G" depart="708.0" departLane="random" departSpeed="8" />
    <vehicle id="car_D_B_142" type="standard_car" route="D_B" depart="709.0" departLane="random" departSpeed="8" />
    <vehicle id="car_K_B_143" type="standard_car" route="K_B" depart="711.0" departLane="random" departSpeed="8" />
    <vehicle id="car_D_K_144" type="standard_car" route="D_K" depart="711.0" departLane="random" departSpeed="8" />
    <vehicle id="car_K_G_145" type="standard_car" route="K_G" depart="711.0" departLane="random" departSpeed="8" />
    <vehicle id="car_K_B_146" type="standard_car" route="K_B" depart="714.0" departLane="random" departSpeed="8" />
    <vehicle id="car_D_B_147" type="standard_car" route="D_B" depart="714.0" departLane="random" departSpeed="8" />
    <vehicle id="bus_B_D_148" type="bus" route="B_D" depart="717.0" departLane="random" departSpeed="5" />
    <vehicle id="car_B_D_149" type="standard_car" route="B_D" depart="717.0" departLane="random" departSpeed="8" />
    <vehicle id="car_D_B_150" type="standard_car" route="D_B" depart="717.0" departLane="random" departSpeed="8" />
    <vehicle id="car_D_K_151" type="standard_car" route="D_K" depart="717.0" departLane="random" departSpeed="8" />
    <vehicle id="car_K_B_152" type="standard_car" route="K_B" depart="724.0" departLane="random" departSpeed="8" />
    <vehicle id="car_D_K_153" type="standard_car" route="D_K" depart="725.0" departLane="random" departSpeed="8" />
    <vehicle id="car_K_G_154" type="standard_car" route="K_G" depart="728.0" departLane="random" departSpeed="8" />
    <vehicle id="car_D_B_155" type="standard_car" route="D_B" depart="730.0" departLane="random" departSpeed="8" />
    <vehicle id="car_D_B_156" type="standard_car" route="D_B" depart="732.0" departLane="random" departSpeed="8" />
    <vehicle id="car_B_D_157" type="standard_car" route="B_D" depart="733.0" departLane="random" departSpeed="8" />
    <vehicle id="car_D_K_158" type="standard_car" route="D_K" depart="743.0" departLane="random" departSpeed="8" />
    <vehicle id="taxi_D_B_159" type="taxi" route="D_B" depart="746.0" departLane="random" departSpeed="8" />
    <vehicle id="car_B_D_160" type="standard_car" route="B_D" depart="751.0" departLane="random" departSpeed="8" />
    <vehicle id="car_K_B_161" type="standard_car" route="K_B" depart="753.0" departLane="random" departSpeed="8" />
    <vehicle id="car_K_B_162" type="standard_car" route="K_B" depart="754.0" departLane="random" departSpeed="8" />
    <vehicle id="car_K_B_163" type="standard_car" route="K_B" depart="755.0" departLane="random" departSpeed="8" />
    <vehicle id="car_D_K_164" type="standard_car" route="D_K" depart="765.0" departLane="random" departSpeed="8" />
    <vehicle id="car_K_G_165" type="standard_car" route="K_G" depart="772.0" departLane="random" departSpeed="8" />
    <vehicle id="car_D_K_166" type="standard_car" route="D_K" depart="777.0" departLane="random" departSpeed="8" />
    <vehicle id="car_D_K_167" type="standard_car" route="D_K" depart="777.0" departLane="random" departSpeed="8" />
    <vehicle id="car_D_B_168" type="standard_car" route="D_B" depart="783.0" departLane="random" departSpeed="8" />
    <vehicle id="car_B_D_169" type="standard_car" route="B_D" depart="784.0" departLane="random" departSpeed="8" />
    <vehicle id="car_D_B_170" type="standard_car" route="D_B" depart="786.0" departLane="random" departSpeed="8" />
    <vehicle id="car_D_B_171" type="standard_car" route="D_B" depart="787.0" departLane="random" departSpeed="8" />
    <vehicle id="bus_D_K_172" type="bus" route="D_K" depart="789.0" departLane="random" departSpeed="5" />
    <vehicle id="car_D_B_173" type="standard_car" route="D_B" depart="789.0" departLane="random" departSpeed="8" />
    <vehicle id="car_D_K_174" type="standard_car" route="D_K" depart="789.0" departLane="random" departSpeed="8" />
    <vehicle id="car_D_B_175" type="standard_car" route="D_B" depart="792.0" departLane="random" departSpeed="8" />
    <vehicle id="bus_D_B_176" type="bus" route="D_B" depart="793.0" departLane="random" departSpeed="5" />
    <vehicle id="car_B_D_177" type="standard_car" route="B_D" depart="795.0" departLane="random" departSpeed="8" />
    <vehicle id="bus_D_K_178" type="bus" route="D_K" depart="801.0" departLane="random" departSpeed="5" />
    <vehicle id="taxi_D_K_179" type="taxi" route="D_K" depart="803.0" departLane="random" departSpeed="8" />
    <vehicle id="car_K_G_180" type="standard_car" route="K_G" depart="806.0" departLane="random" departSpeed="8" />
    <vehicle id="bus_B_D_181" type="bus" route="B_D" depart="812.0" departLane="random" departSpeed="5" />
    <vehicle id="car_K_G_182" type="standard_car" route="K_G" depart="812.0" departLane="random" departSpeed="8" />
    <vehicle id="bus_B_D_183" type="bus" route="B_D" depart="813.0" departLane="random" departSpeed="5" />
    <vehicle id="car_K_B_184" type="standard_car" route="K_B" depart="814.0" departLane="random" departSpeed="8" />
    <vehicle id="car_K_G_185" type="standard_car" route="K_G" depart="817.0" departLane="random" departSpeed="8" />
    <vehicle id="bus_K_G_186" type="bus" route="K_G" depart="821.0" departLane="random" departSpeed="5" />
    <vehicle id="car_K_B_187" type="standard_car" route="K_B" depart="822.0" departLane="random" departSpeed="8" />
    <vehicle id="car_D_K_188" type="standard_car" route="D_K" depart="823.0" departLane="random" departSpeed="8" />
    <vehicle id="bus_D_K_189" type="bus" route="D_K" depart="823.0" departLane="random" departSpeed="5" />
    <vehicle id="taxi_K_B_190" type="taxi" route="K_B" depart="825.0" departLane="random" departSpeed="8" />
    <vehicle id="car_D_B_191" type="standard_car" route="D_B" depart="825.0" departLane="random" departSpeed="8" />
    <vehicle id="bus_K_G_192" type="bus" route="K_G" depart="830.0" departLane="random" departSpeed="5" />
    <vehicle id="car_B_D_193" type="standard_car" route="B_D" depart="832.0" departLane="random" departSpeed="8" />
    <vehicle id="car_K_G_194" type="standard_car" route="K_G" depart="833.0" departLane="random" departSpeed="8" />
    <vehicle id="car_D_K_195" type="standard_car" route="D_K" depart="835.0" departLane="random" departSpeed="8" />
    <vehicle id="car_D_B_196" type="standard_car" route="D_B" depart="837.0" departLane="random" departSpeed="8" />
    <vehicle id="car_D_K_197" type="standard_car" route="D_K" depart="838.0" departLane="random" departSpeed="8" />
    <vehicle id="taxi_B_D_198" type="taxi" route="B_D" depart="839.0" departLane="random" departSpeed="8" />
    <vehicle id="car_D_B_199" type="standard_car" route="D_B" depart="846.0" departLane="random" departSpeed="8" />
    <vehicle id="taxi_D_K_200" type="taxi" route="D_K" depart="847.0" departLane="random" departSpeed="8" />
    <vehicle id="car_K_G_201" type="standard_car" route="K_G" depart="848.0" departLane="random" departSpeed="8" />
    <vehicle id="car_D_B_202" type="standard_car" route="D_B" depart="849.0" departLane="random" departSpeed="8" />
    <vehicle id="car_D_K_203" type="standard_car" route="D_K" depart="856.0" departLane="random" departSpeed="8" />
    <vehicle id="car_K_B_204" type="standard_car" route="K_B" depart="858.0" departLane="random" departSpeed="8" />
    <vehicle id="car_B_D_205" type="standard_car" route="B_D" depart="860.0" departLane="random" departSpeed="8" />
    <vehicle id="car_K_B_206" type="standard_car" route="K_B" depart="861.0" departLane="random" departSpeed="8" />
    <vehicle id="car_K_B_207" type="standard_car" route="K_B" depart="866.0" departLane="random" departSpeed="8" />
    <vehicle id="car_D_B_208" type="standard_car" route="D_B" depart="868.0" departLane="random" departSpeed="8" />
    <vehicle id="car_D_K_209" type="standard_car" route="D_K" depart="870.0" departLane="random" departSpeed="8" />
    <vehicle id="car_D_B_210" type="standard_car" route="D_B" depart="874.0" departLane="random" departSpeed="8" />
    <vehicle id="car_D_B_211" type="standard_car" route="D_B" depart="876.0" departLane="random" departSpeed="8" />
    <vehicle id="car_D_B_212" type="standard_car" route="D_B" depart="878.0" departLane="random" departSpeed="8" />
    <vehicle id="car_B_D_213" type="standard_car" route="B_D" depart="879.0" departLane="random" departSpeed="8" />
    <vehicle id="car_B_D_214" type="standard_car" route="B_D" depart="883.0" departLane="random" departSpeed="8" />
    <vehicle id="taxi_B_D_215" type="taxi" route="B_D" depart="884.0" departLane="random" departSpeed="8" />
    <vehicle id="bus_K_B_216" type="bus" route="K_B" depart="889.0" departLane="random" departSpeed="5" />
    <vehicle id="car_D_B_217" type="standard_car" route="D_B" depart="890.0" departLane="random" departSpeed="8" />
    <vehicle id="car_K_G_218" type="standard_car" route="K_G" depart="898.0" departLane="random" departSpeed="8" />
    <vehicle id="car_D_B_219" type="standard_car" route="D_B" depart="898.0" departLane="random" departSpeed="8" />
    <vehicle id="car_D_K_220" type="standard_car" route="D_K" depart="898.0" departLane="random" departSpeed="8" />
    <vehicle id="car_K_B_221" type="standard_car" route="K_B" depart="900.0" departLane="random" departSpeed="8" />
    <vehicle id="car_K_G_222" type="standard_car" route="K_G" depart="901.0" departLane="random" departSpeed="8" />
    <vehicle id="car_B_D_223" type="standard_car" route="B_D" depart="901.0" departLane="random" departSpeed="8" />
    <vehicle id="car_K_G_224" type="standard_car" route="K_G" depart="902.0" departLane="random" departSpeed="8" />
    <vehicle id="bus_K_B_225" type="bus" route="K_B" depart="909.0" departLane="random" departSpeed="5" />
    <vehicle id="car_K_B_226" type="standard_car" route="K_B" depart="910.0" departLane="random" departSpeed="8" />
    <vehicle id="taxi_K_G_227" type="taxi" route="K_G" depart="914.0" departLane="random" departSpeed="8" />
    <vehicle id="car_D_K_228" type="standard_car" route="D_K" depart="914.0" departLane="random" departSpeed="8" />
    <vehicle id="car_B_D_229" type="standard_car" route="B_D" depart="915.0" departLane="random" departSpeed="8" />
    <vehicle id="car_D_K_230" type="standard_car" route="D_K" depart="916.0" departLane="random" departSpeed="8" />
    <vehicle id="car_B_D_231" type="standard_car" route="B_D" depart="918.0" departLane="random" departSpeed="8" />
    <vehicle id="car_D_K_232" type="standard_car" route="D_K" depart="918.0" departLane="random" departSpeed="8" />
    <vehicle id="car_K_G_233" type="standard_car" route="K_G" depart="924.0" departLane="random" departSpeed="8" />
    <vehicle id="taxi_D_B_234" type="taxi" route="D_B" depart="927.0" departLane="random" departSpeed="8" />
    <vehicle id="taxi_D_B_235" type="taxi" route="D_B" depart="929.0" departLane="random" departSpeed="8" />
    <vehicle id="bus_D_B_236" type="bus" route="D_B" depart="930.0" departLane="random" departSpeed="5" />
    <vehicle id="taxi_B_D_237" type="taxi" route="B_D" depart="936.0" departLane="random" departSpeed="8" />
    <vehicle id="car_D_B_238" type="standard_car" route="D_B" depart="936.0" departLane="random" departSpeed="8" />
    <vehicle id="car_K_B_239" type="standard_car" route="K_B" depart="941.0" departLane="random" departSpeed="8" />
    <vehicle id="car_D_B_240" type="standard_car" route="D_B" depart="943.0" departLane="random" departSpeed="8" />
    <vehicle id="car_D_B_241" type="standard_car" route="D_B" depart="944.0" departLane="random" departSpeed="8" />
    <vehicle id="car_K_B_242" type="standard_car" route="K_B" depart="946.0" departLane="random" departSpeed="8" />
    <vehicle id="car_D_B_243" type="standard_car" route="D_B" depart="955.0" departLane="random" departSpeed="8" />
    <vehicle id="taxi_B_D_244" type="taxi" route="B_D" depart="957.0" departLane="random" departSpeed="8" />
    <vehicle id="car_B_D_245" type="standard_car" route="B_D" depart="960.0" departLane="random" departSpeed="8" />
    <vehicle id="car_D_K_246" type="standard_car" route="D_K" depart="960.0" departLane="random" departSpeed="8" />
    <vehicle id="car_D_B_247" type="standard_car" route="D_B" depart="961.0" departLane="random" departSpeed="8" />
    <vehicle id="bus_D_B_248" type="bus" route="D_B" depart="965.0" departLane="random" departSpeed="5" />
    <vehicle id="car_B_D_249" type="standard_car" route="B_D" depart="969.0" departLane="random" departSpeed="8" />
    <vehicle id="car_B_D_250" type="standard_car" route="B_D" depart="970.0" departLane="random" departSpeed="8" />
    <vehicle id="car_D_K_251" type="standard_car" route="D_K" depart="971.0" departLane="random" departSpeed="8" />
    <vehicle id="car_K_B_252" type="standard_car" route="K_B" depart="971.0" departLane="random" departSpeed="8" />
    <vehicle id="car_B_D_253" type="standard_car" route="B_D" depart="973.0" departLane="random" departSpeed="8" />