<routes>
            <vType accel="1.0" decel="4.5" vClass= "passenger" id="standart_car" length="5.0" minGap="2.5" maxSpeed="25" sigma="0.5" color= "cyan" />
            <vType accel="1.0" decel="4.5" vClass= "bus" id="bus" length="10.0" minGap="2.5" maxSpeed="15" sigma="0.5" color= "red" />
            <vType accel="1.0" decel="4.5" vClass= "taxi" id="taxi" length="5.0" minGap="2.5" maxSpeed="25" sigma="0.5" color= "yellow" />
            

            <route id="D_B" edges="E2 1011411824 724597257 26430484#0 26430484#1 26430484#2"/>
            <route id="D_K" edges="E2 724597254#0 724597254#1 724597253#0 724597253#1"/>
            <route id="K_G" edges="E3 1011411822 724597252 1099844081#0 1099844081#1 1099844081#2"/>
            <route id="K_B" edges="E3 724597257 26430484#0 26430484#1 26430484#2"/>
            <route id="B_D" edges="E4 724597252 1099844081#0 1099844081#1 1099844081#2"/>
            <route id="B_K" edges="E4 724597252 1011411823 724597254#0 724597254#1 724597253#0 724597253#1"/>
    <vehicle id="bus_K_G_0" type="bus" route="K_G" depart="30.0" departLane="random" departSpeed="5" />
    <vehicle id="car_B_D_1" type="standart_car" route="B_D" depart="50.0" departLane="random" departSpeed="8" />
    <vehicle id="car_K_B_2" type="standart_car" route="K_B" depart="108.0" departLane="random" departSpeed="8" />
    <vehicle id="taxi_B_D_3" type="taxi" route="B_D" depart="116.0" departLane="random" departSpeed="8" />
    <vehicle id="car_D_B_4" type="standart_car" route="D_B" depart="126.0" departLane="random" departSpeed="8" />
    <vehicle id="bus_K_B_5" type="bus" route="K_B" depart="132.0" departLane="random" departSpeed="5" />
    <vehicle id="car_K_B_6" type="standart_car" route="K_B" depart="134.0" departLane="random" departSpeed="8" />
    <vehicle id="car_K_G_7" type="standart_car" route="K_G" depart="136.0" departLane="random" departSpeed="8" />
    <vehicle id="car_K_B_8" type="standart_car" route="K_B" depart="156.0" departLane="random" departSpeed="8" />
    <vehicle id="car_K_B_9" type="standart_car" route="K_B" depart="184.0" departLane="random" departSpeed="8" />
    <vehicle id="car_B_D_10" type="standart_car" route="B_D" depart="194.0" departLane="random" departSpeed="8" />
    <vehicle id="car_D_K_11" type="standart_car" route="D_K" depart="213.0" departLane="random" departSpeed="8" />
    <vehicle id="car_D_B_12" type="standart_car" route="D_B" depart="229.0" departLane="random" departSpeed="8" />
    <vehicle id="car_K_G_13" type="standart_car" route="K_G" depart="231.0" departLane="random" departSpeed="8" />
    <vehicle id="car_K_B_14" type="standart_car" route="K_B" depart="231.0" departLane="random" departSpeed="8" />
    <vehicle id="car_K_G_15" type="standart_car" route="K_G" depart="233.0" departLane="random" departSpeed="8" />
    <vehicle id="car_K_G_16" type="standart_car" route="K_G" depart="246.0" departLane="random" departSpeed="8" />
    <vehicle id="car_D_B_17" type="standart_car" route="D_B" depart="250.0" departLane="random" departSpeed="8" />
    <vehicle id="car_K_B_18" type="standart_car" route="K_B" depart="260.0" departLane="random" departSpeed="8" />
    <vehicle id="car_D_K_19" type="standart_car" route="D_K" depart="272.0" departLane="random" departSpeed="8" />
    <vehicle id="car_D_K_20" type="standart_car" route="D_K" depart="280.0" departLane="random" departSpeed="8" />
    <vehicle id="car_D_K_21" type="standart_car" route="D_K" depart="280.0" departLane="random" departSpeed="8" />
    <vehicle id="car_K_B_22" type="standart_car" route="K_B" depart="284.0" departLane="random" departSpeed="8" />
    <vehicle id="car_K_B_23" type="standart_car" route="K_B" depart="285.0" departLane="random" departSpeed="8" />
    <vehicle id="car_D_B_24" type="standart_car" route="D_B" depart="293.0" departLane="random" departSpeed="8" />
    <vehicle id="bus_D_K_25" type="bus" route="D_K" depart="293.0" departLane="random" departSpeed="5" />
    <vehicle id="car_D_B_26" type="standart_car" route="D_B" depart="300.0" departLane="random" departSpeed="8" />
    <vehicle id="car_D_B_27" type="standart_car" route="D_B" depart="301.0" departLane="random" departSpeed="8" />
    <vehicle id="bus_K_G_28" type="bus" route="K_G" depart="309.0" departLane="random" departSpeed="5" />
    <vehicle id="car_D_B_29" type="standart_car" route="D_B" depart="321.0" departLane="random" departSpeed="8" />
    <vehicle id="car_K_G_30" type="standart_car" route="K_G" depart="329.0" departLane="random" departSpeed="8" />
    <vehicle id="car_D_K_31" type="standart_car" route="D_K" depart="333.0" departLane="random" departSpeed="8" />
    <vehicle id="bus_D_K_32" type="bus" route="D_K" depart="336.0" departLane="random" departSpeed="5" />
    <vehicle id="car_K_G_33" type="standart_car" route="K_G" depart="346.0" departLane="random" departSpeed="8" />
    <vehicle id="bus_D_K_34" type="bus" route="D_K" depart="347.0" departLane="random" departSpeed="5" />
    <vehicle id="bus_K_B_35" type="bus" route="K_B" depart="350.0" departLane="random" departSpeed="5" />
    <vehicle id="bus_K_G_36" type="bus" route="K_G" depart="351.0" departLane="random" departSpeed="5" />
    <vehicle id="car_D_K_37" type="standart_car" route="D_K" depart="358.0" departLane="random" departSpeed="8" />
    <vehicle id="car_B_D_38" type="standart_car" route="B_D" depart="362.0" departLane="random" departSpeed="8" />
    <vehicle id="car_B_D_39" type="standart_car" route="B_D" depart="364.0" departLane="random" departSpeed="8" />
    <vehicle id="car_K_G_40" type="standart_car" route="K_G" depart="368.0" departLane="random" departSpeed="8" />
    <vehicle id="car_K_B_41" type="standart_car" route="K_B" depart="371.0" departLane="random" departSpeed="8" />
    <vehicle id="car_B_D_42" type="standart_car" route="B_D" depart="379.0" departLane="random" departSpeed="8" />
    <vehicle id="car_D_B_43" type="standart_car" route="D_B" depart="381.0" departLane="random" departSpeed="8" />
    <vehicle id="bus_D_B_44" type="bus" route="D_B" depart="382.0" departLane="random" departSpeed="5" />
    <vehicle id="car_K_B_45" type="standart_car" route="K_B" depart="383.0" departLane="random" departSpeed="8" />
    <vehicle id="car_D_K_46" type="standart_car" route="D_K" depart="383.0" departLane="random" departSpeed="8" />
    <vehicle id="car_D_K_47" type="standart_car" route="D_K" depart="390.0" departLane="random" departSpeed="8" />
    <vehicle id="car_D_B_48" type="standart_car" route="D_B" depart="396.0" departLane="random" departSpeed="8" />
    <vehicle id="taxi_D_B_49" type="taxi" route="D_B" depart="402.0" departLane="random" departSpeed="8" />
    <vehicle id="car_K_B_50" type="standart_car" route="K_B" depart="404.0" departLane="random" departSpeed="8" />
    <vehicle id="car_K_G_51" type="standart_car" route="K_G" depart="413.0" departLane="random" departSpeed="8" />
    <vehicle id="car_D_K_52" type="standart_car" route="D_K" depart="413.0" departLane="random" departSpeed="8" />
    <vehicle id="car_B_D_53" type="standart_car" route="B_D" depart="422.0" departLane="random" departSpeed="8" />
    <vehicle id="car_D_B_54" type="standart_car" route="D_B" depart="425.0" departLane="random" departSpeed="8" />
    <vehicle id="car_K_B_55" type="standart_car" route="K_B" depart="433.0" departLane="random" departSpeed="8" />
    <vehicle id="car_D_K_56" type="standart_car" route="D_K" depart="437.0" departLane="random" departSpeed="8" />
    <vehicle id="car_K_B_57" type="standart_car" route="K_B" depart="445.0" departLane="random" departSpeed="8" />
    <vehicle id="car_B_D_58" type="standart_car" route="B_D" depart="448.0" departLane="random" departSpeed="8" />
    <vehicle id="car_B_D_59" type="standart_car" route="B_D" depart="456.0" departLane="random" departSpeed="8" />
    <vehicle id="bus_B_D_60" type="bus" route="B_D" depart="457.0" departLane="random" departSpeed="5" />
    <vehicle id="car_B_D_61" type="standart_car" route="B_D" depart="459.0" departLane="random" departSpeed="8" />
    <vehicle id="car_K_G_62" type="standart_car" route="K_G" depart="460.0" departLane="random" departSpeed="8" />
    <vehicle id="car_D_B_63" type="standart_car" route="D_B" depart="466.0" departLane="random" departSpeed="8" />
    <vehicle id="car_D_K_64" type="standart_car" route="D_K" depart="467.0" departLane="random" departSpeed="8" />
    <vehicle id="car_K_B_65" type="standart_car" route="K_B" depart="477.0" departLane="random" departSpeed="8" />
    <vehicle id="bus_B_D_66" type="bus" route="B_D" depart="487.0" departLane="random" departSpeed="5" />
    <vehicle id="car_K_B_67" type="standart_car" route="K_B" depart="488.0" departLane="random" departSpeed="8" />
    <vehicle id="car_K_B_68" type="standart_car" route="K_B" depart="490.0" departLane="random" departSpeed="8" />
    <vehicle id="car_D_K_69" type="standart_car" route="D_K" depart="493.0" departLane="random" departSpeed="8" />
    <vehicle id="car_D_B_70" type="standart_car" route="D_B" depart="514.0" departLane="random" departSpeed="8" />
    <vehicle id="car_D_K_71" type="standart_car" route="D_K" depart="516.0" departLane="random" departSpeed="8" />
    <vehicle id="car_D_B_72" type="standart_car" route="D_B" depart="517.0" departLane="random" departSpeed="8" />
    <vehicle id="car_D_K_73" type="standart_car" route="D_K" depart="519.0" departLane="random" departSpeed="8" />
    <vehicle id="car_B_D_74" type="standart_car" route="B_D" depart="521.0" departLane="random" departSpeed="8" />
    <vehicle id="taxi_D_K_75" type="taxi" route="D_K" depart="531.0" departLane="random" departSpeed="8" />
    <vehicle id="car_D_K_76" type="standart_car" route="D_K" depart="532.0" departLane="random" departSpeed="8" />
    <vehicle id="car_K_G_77" type="standart_car" route="K_G" depart="543.0" departLane="random" departSpeed="8" />
    <vehicle id="bus_D_K_78" type="bus" route="D_K" depart="543.0" departLane="random" departSpeed="5" />
    <vehicle id="taxi_B_D_79" type="taxi" route="B_D" depart="544.0" departLane="random" departSpeed="8" />
    <vehicle id="car_D_B_80" type="standart_car" route="D_B" depart="545.0" departLane="random" departSpeed="8" />
    <vehicle id="car_K_G_81" type="standart_car" route="K_G" depart="550.0" departLane="random" departSpeed="8" />
    <vehicle id="car_D_K_82" type="standart_car" route="D_K" depart="556.0" departLane="random" departSpeed="8" />
    <vehicle id="car_K_G_83" type="standart_car" route="K_G" depart="556.0" departLane="random" departSpeed="8" />
    <vehicle id="car_D_K_84" type="standart_car" route="D_K" depart="561.0" departLane="random" departSpeed="8" />
    <vehicle id="car_D_K_85" type="standart_car" route="D_K" depart="568.0" departLane="random" departSpeed="8" />
    <vehicle id="bus_D_K_86" type="bus" route="D_K" depart="575.0" departLane="random" departSpeed="5" />
    <vehicle id="car_K_G_87" type="standart_car" route="K_G" depart="580.0" departLane="random" departSpeed="8" />
    <vehicle id="car_D_K_88" type="standart_car" route="D_K" depart="584.0" departLane="random" departSpeed="8" />
    <vehicle id="car_B_D_89" type="standart_car" route="B_D" depart="584.0" departLane="random" departSpeed="8" />
    <vehicle id="car_B_D_90" type="standart_car" route="B_D" depart="585.0" departLane="random" departSpeed="8" />
    <vehicle id="car_D_K_91" type="standart_car" route="D_K" depart="587.0" departLane="random" departSpeed="8" />
    <vehicle id="bus_K_B_92" type="bus" route="K_B" depart="591.0" departLane="random" departSpeed="5" />
    <vehicle id="car_D_K_93" type="standart_car" route="D_K" depart="593.0" departLane="random" departSpeed="8" />
    <vehicle id="taxi_K_G_94" type="taxi" route="K_G" depart="595.0" departLane="random" departSpeed="8" />
    <vehicle id="car_K_G_95" type="standart_car" route="K_G" depart="598.0" departLane="random" departSpeed="8" />
    <vehicle id="car_D_B_96" type="standart_car" route="D_B" depart="601.0" departLane="random" departSpeed="8" />
    <vehicle id="car_K_G_97" type="standart_car" route="K_G" depart="601.0" departLane="random" departSpeed="8" />
    <vehicle id="car_K_B_98" type="standart_car" route="K_B" depart="602.0" departLane="random" departSpeed="8" />
    <vehicle id="car_D_K_99" type="standart_car" route="D_K" depart="603.0" departLane="random" departSpeed="8" />
    <vehicle id="car_K_B_100" type="standart_car" route="K_B" depart="605.0" departLane="random" departSpeed="8" />
    <vehicle id="car_B_D_101" type="standart_car" route="B_D" depart="609.0" departLane="random" departSpeed="8" />
    <vehicle id="car_B_D_102" type="standart_car" route="B_D" depart="610.0" departLane="random" departSpeed="8" />
    <vehicle id="bus_D_K_103" type="bus" route="D_K" depart="618.0" departLane="random" departSpeed="5" />
    <vehicle id="car_K_B_104" type="standart_car" route="K_B" depart="621.0" departLane="random" departSpeed="8" />
    <vehicle id="car_D_B_105" type="standart_car" route="D_B" depart="623.0" departLane="random" departSpeed="8" />
    <vehicle id="bus_K_G_106" type="bus" route="K_G" depart="624.0" departLane="random" departSpeed="5" />
    <vehicle id="car_K_B_107" type="standart_car" route="K_B" depart="631.0" departLane="random" departSpeed="8" />
    <vehicle id="car_B_D_108" type="standart_car" route="B_D" depart="631.0" departLane="random" departSpeed="8" />
    <vehicle id="car_D_K_109" type="standart_car" route="D_K" depart="635.0" departLane="random" departSpeed="8" />
    <vehicle id="car_D_K_110" type="standart_car" route="D_K" depart="640.0" departLane="random" departSpeed="8" />
    <vehicle id="car_D_K_111" type="standart_car" route="D_K" depart="649.0" departLane="random" departSpeed="8" />
    <vehicle id="taxi_K_G_112" type="taxi" route="K_G" depart="656.0" departLane="random" departSpeed="8" />
    <vehicle id="bus_B_D_113" type="bus" route="B_D" depart="657.0" departLane="random" departSpeed="5" />
    <vehicle id="bus_K_G_114" type="bus" route="K_G" depart="659.0" departLane="random" departSpeed="5" />
    <vehicle id="car_K_B_115" type="standart_car" route="K_B" depart="661.0" departLane="random" departSpeed="8" />
    <vehicle id="car_D_B_116" type="standart_car" route="D_B" depart="668.0" departLane="random" departSpeed="8" />
    <vehicle id="bus_D_B_117" type="bus" route="D_B" depart="671.0" departLane="random" departSpeed="5" />
    <vehicle id="car_D_K_118" type="standart_car" route="D_K" depart="671.0" departLane="random" departSpeed="8" />
    <vehicle id="car_K_B_119" type="standart_car" route="K_B" depart="672.0" departLane="random" departSpeed="8" />
    <vehicle id="car_K_G_120" type="standart_car" route="K_G" depart="673.0" departLane="random" departSpeed="8" />
    <vehicle id="car_D_B_121" type="standart_car" route="D_B" depart="674.0" departLane="random" departSpeed="8" />
    <vehicle id="car_K_G_122" type="standart_car" route="K_G" depart="682.0" departLane="random" departSpeed="8" />
    <vehicle id="car_D_K_123" type="standart_car" route="D_K" depart="683.0" departLane="random" departSpeed="8" />
    <vehicle id="bus_B_D_124" type="bus" route="B_D" depart="684.0" departLane="random" departSpeed="5" />
    <vehicle id="car_B_D_125" type="standart_car" route="B_D" depart="685.0" departLane="random" departSpeed="8" />
    <vehicle id="bus_D_B_126" type="bus" route="D_B" depart="687.0" departLane="random" departSpeed="5" />
    <vehicle id="car_D_K_127" type="standart_car" route="D_K" depart="690.0" departLane="random" departSpeed="8" />
    <vehicle id="car_D_B_128" type="standart_car" route="D_B" depart="690.0" departLane="random" departSpeed="8" />
    <vehicle id="car_B_D_129" type="standart_car" route="B_D" depart="690.0" departLane="random" departSpeed="8" />
    <vehicle id="car_K_G_130" type="standart_car" route="K_G" depart="692.0" departLane="random" departSpeed="8" />
    <vehicle id="car_B_D_131" type="standart_car" route="B_D" depart="693.0" departLane="random" departSpeed="8" />
    <vehicle id="car_K_B_132" type="standart_car" route="K_B" depart="693.0" departLane="random" departSpeed="8" />
    <vehicle id="car_D_K_133" type="standart_car" route="D_K" depart="698.0" departLane="random" departSpeed="8" />
    <vehicle id="car_B_D_134" type="standart_car" route="B_D" depart="700.0" departLane="random" departSpeed="8" />
    <vehicle id="car_D_K_135" type="standart_car" route="D_K" depart="704.0" departLane="random" departSpeed="8" />
    <vehicle id="car_K_G_136" type="standart_car" route="K_G" depart="709.0" departLane="random" departSpeed="8" />
    <vehicle id="bus_B_D_137" type="bus" route="B_D" depart="713.0" departLane="random" departSpeed="5" />
    <vehicle id="car_D_K_138" type="standart_car" route="D_K" depart="715.0" departLane="random" departSpeed="8" />
    <vehicle id="car_K_B_139" type="standart_car" route="K_B" depart="722.0" departLane="random" departSpeed="8" />
    <vehicle id="car_K_B_140" type="standart_car" route="K_B" depart="724.0" departLane="random" departSpeed="8" />
    <vehicle id="bus_D_K_141" type="bus" route="D_K" depart="724.0" departLane="random" departSpeed="5" />
    <vehicle id="car_D_K_142" type="standart_car" route="D_K" depart="726.0" departLane="random" departSpeed="8" />
    <vehicle id="car_K_G_143" type="standart_car" route="K_G" depart="734.0" departLane="random" departSpeed="8" />
    <vehicle id="bus_D_K_144" type="bus" route="D_K" depart="737.0" departLane="random" departSpeed="5" />
    <vehicle id="car_D_B_145" type="standart_car" route="D_B" depart="740.0" departLane="random" departSpeed="8" />
    <vehicle id="car_D_K_146" type="standart_car" route="D_K" depart="740.0" departLane="random" departSpeed="8" />
    <vehicle id="bus_K_B_147" type="bus" route="K_B" depart="745.0" departLane="random" departSpeed="5" />
    <vehicle id="taxi_D_B_148" type="taxi" route="D_B" depart="745.0" departLane="random" departSpeed="8" />
    <vehicle id="car_B_D_149" type="standart_car" route="B_D" depart="748.0" departLane="random" departSpeed="8" />
    <vehicle id="car_D_K_150" type="standart_car" route="D_K" depart="749.0" departLane="random" departSpeed="8" />
    <vehicle id="car_B_D_151" type="standart_car" route="B_D" depart="751.0" departLane="random" departSpeed="8" />
    <vehicle id="car_K_G_152" type="standart_car" route="K_G" depart="753.0" departLane="random" departSpeed="8" />
    <vehicle id="car_D_B_153" type="standart_car" route="D_B" depart="754.0" departLane="random" departSpeed="8" />
    <vehicle id="car_D_K_154" type="standart_car" route="D_K" depart="759.0" departLane="random" departSpeed="8" />
    <vehicle id="car_D_K_155" type="standart_car" route="D_K" depart="760.0" departLane="random" departSpeed="8" />
    <vehicle id="car_B_D_156" type="standart_car" route="B_D" depart="762.0" departLane="random" departSpeed="8" />
    <vehicle id="car_B_D_157" type="standart_car" route="B_D" depart="764.0" departLane="random" departSpeed="8" />
    <vehicle id="car_K_B_158" type="standart_car" route="K_B" depart="766.0" departLane="random" departSpeed="8" />
    <vehicle id="car_D_K_159" type="standart_car" route="D_K" depart="768.0" departLane="random" departSpeed="8" />
    <vehicle id="car_D_B_160" type="standart_car" route="D_B" depart="769.0" departLane="random" departSpeed="8" />
    <vehicle id="bus_D_K_161" type="bus" route="D_K" depart="772.0" departLane="random" departSpeed="5" />
    <vehicle id="bus_K_G_162" type="bus" route="K_G" depart="775.0" departLane="random" departSpeed="5" />
    <vehicle id="car_D_K_163" type="standart_car" route="D_K" depart="776.0" departLane="random" departSpeed="8" />
    <vehicle id="car_K_G_164" type="standart_car" route="K_G" depart="776.0" departLane="random" departSpeed="8" />
    <vehicle id="taxi_D_K_165" type="taxi" route="D_K" depart="780.0" departLane="random" departSpeed="8" />
    <vehicle id="car_D_B_166" type="standart_car" route="D_B" depart="782.0" departLane="random" departSpeed="8" />
    <vehicle id="bus_B_D_167" type="bus" route="B_D" depart="783.0" departLane="random" departSpeed="5" />
    <vehicle id="car_K_B_168" type="standart_car" route="K_B" depart="783.0" departLane="random" departSpeed="8" />
    <vehicle id="car_K_G_169" type="standart_car" route="K_G" depart="784.0" departLane="random" departSpeed="8" />
    <vehicle id="car_D_K_170" type="standart_car" route="D_K" depart="787.0" departLane="random" departSpeed="8" />
    <vehicle id="car_D_K_171" type="standart_car" route="D_K" depart="792.0" departLane="random" departSpeed="8" />
    <vehicle id="car_D_K_172" type="standart_car" route="D_K" depart="792.0" departLane="random" departSpeed="8" />
    <vehicle id="car_K_B_173" type="standart_car" route="K_B" depart="796.0" departLane="random" departSpeed="8" />
    <vehicle id="car_K_G_174" type="standart_car" route="K_G" depart="799.0" departLane="random" departSpeed="8" />
    <vehicle id="car_D_B_175" type="standart_car" route="D_B" depart="799.0" departLane="random" departSpeed="8" />
    <vehicle id="car_D_K_176" type="standart_car" route="D_K" depart="803.0" departLane="random" departSpeed="8" />
    <vehicle id="car_D_K_177" type="standart_car" route="D_K" depart="804.0" departLane="random" departSpeed="8" />
    <vehicle id="car_B_D_178" type="standart_car" route="B_D" depart="806.0" departLane="random" departSpeed="8" />
    <vehicle id="car_D_B_179" type="standart_car" route="D_B" depart="808.0" departLane="random" departSpeed="8" />
    <vehicle id="car_K_G_180" type="standart_car" route="K_G" depart="809.0" departLane="random" departSpeed="8" />
    <vehicle id="car_D_B_181" type="standart_car" route="D_B" depart="810.0" departLane="random" departSpeed="8" />
    <vehicle id="car_D_K_182" type="standart_car" route="D_K" depart="811.0" departLane="random" departSpeed="8" />
    <vehicle id="car_D_B_183" type="standart_car" route="D_B" depart="811.0" departLane="random" departSpeed="8" />
    <vehicle id="taxi_K_G_184" type="taxi" route="K_G" depart="813.0" departLane="random" departSpeed="8" />
    <vehicle id="bus_D_K_185" type="bus" route="D_K" depart="818.0" departLane="random" departSpeed="5" />
    <vehicle id="car_D_K_186" type="standart_car" route="D_K" depart="819.0" departLane="random" departSpeed="8" />
    <vehicle id="car_D_K_187" type="standart_car" route="D_K" depart="820.0" departLane="random" departSpeed="8" />
    <vehicle id="bus_B_D_188" type="bus" route="B_D" depart="820.0" departLane="random" departSpeed="5" />
    <vehicle id="car_D_B_189" type="standart_car" route="D_B" depart="823.0" departLane="random" departSpeed="8" />
    <vehicle id="car_K_G_190" type="standart_car" route="K_G" depart="823.0" departLane="random" departSpeed="8" />
    <vehicle id="car_K_B_191" type="standart_car" route="K_B" depart="827.0" departLane="random" departSpeed="8" />
    <vehicle id="car_D_K_192" type="standart_car" route="D_K" depart="829.0" departLane="random" departSpeed="8" />
    <vehicle id="car_D_K_193" type="standart_car" route="D_K" depart="830.0" departLane="random" departSpeed="8" />
    <vehicle id="car_D_B_194" type="standart_car" route="D_B" depart="833.0" departLane="random" departSpeed="8" />
    <vehicle id="bus_D_K_195" type="bus" route="D_K" depart="834.0" departLane="random" departSpeed="5" />
    <vehicle id="bus_K_B_196" type="bus" route="K_B" depart="835.0" departLane="random" departSpeed="5" />
    <vehicle id="car_K_B_197" type="standart_car" route="K_B" depart="835.0" departLane="random" departSpeed="8" />
    <vehicle id="car_K_B_198" type="standart_car" route="K_B" depart="839.0" departLane="random" departSpeed="8" />
    <vehicle id="car_K_B_199" type="standart_car" route="K_B" depart="840.0" departLane="random" departSpeed="8" />
    <vehicle id="car_K_B_200" type="standart_car" route="K_B" depart="843.0" departLane="random" departSpeed="8" />
    <vehicle id="car_K_B_201" type="standart_car" route="K_B" depart="844.0" departLane="random" departSpeed="8" />
    <vehicle id="car_K_B_202" type="standart_car" route="K_B" depart="848.0" departLane="random" departSpeed="8" />
    <vehicle id="car_K_G_203" type="standart_car" route="K_G" depart="850.0" departLane="random" departSpeed="8" />
    <vehicle id="car_D_K_204" type="standart_car" route="D_K" depart="850.0" departLane="random" departSpeed="8" />
    <vehicle id="car_K_B_205" type="standart_car" route="K_B" depart="856.0" departLane="random" departSpeed="8" />
    <vehicle id="car_D_K_206" type="standart_car" route="D_K" depart="856.0" departLane="random" departSpeed="8" />
    <vehicle id="bus_D_B_207" type="bus" route="D_B" depart="857.0" departLane="random" departSpeed="5" />
    <vehicle id="car_K_B_208" type="standart_car" route="K_B" depart="861.0" departLane="random" departSpeed="8" />
    <vehicle id="bus_D_K_209" type="bus" route="D_K" depart="868.0" departLane="random" departSpeed="5" />
    <vehicle id="bus_K_B_210" type="bus" route="K_B" depart="869.0" departLane="random" departSpeed="5" />
    <vehicle id="car_B_D_211" type="standart_car" route="B_D" depart="871.0" departLane="random" departSpeed="8" />
    <vehicle id="car_D_B_212" type="standart_car" route="D_B" depart="873.0" departLane="random" departSpeed="8" />
    <vehicle id="car_D_B_213" type="standart_car" route="D_B" depart="874.0" departLane="random" departSpeed="8" />
    <vehicle id="car_D_K_214" type="standart_car" route="D_K" depart="875.0" departLane="random" departSpeed="8" />
    <vehicle id="car_D_K_215" type="standart_car" route="D_K" depart="878.0" departLane="random" departSpeed="8" />
    <vehicle id="car_K_B_216" type="standart_car" route="K_B" depart="879.0" departLane="random" departSpeed="8" />
    <vehicle id="car_B_D_217" type="standart_car" route="B_D" depart="884.0" departLane="random" departSpeed="8" />
    <vehicle id="car_K_G_218" type="standart_car" route="K_G" depart="887.0" departLane="random" departSpeed="8" />
    <vehicle id="car_K_G_219" type="standart_car" route="K_G" depart="889.0" departLane="random" departSpeed="8" />
    <vehicle id="car_D_B_220" type="standart_car" route="D_B" depart="892.0" departLane="random" departSpeed="8" />
    <vehicle id="car_K_G_221" type="standart_car" route="K_G" depart="892.0" departLane="random" departSpeed="8" />
    <vehicle id="car_D_B_222" type="standart_car" route="D_B" depart="896.0" departLane="random" departSpeed="8" />
    <vehicle id="car_D_B_223" type="standart_car" route="D_B" depart="897.0" departLane="random" departSpeed="8" />
    <vehicle id="car_D_B_224" type="standart_car" route="D_B" depart="903.0" departLane="random" departSpeed="8" />
    <vehicle id="car_K_B_225" type="standart_car" route="K_B" depart="907.0" departLane="random" departSpeed="8" />
    <vehicle id="car_D_B_226" type="standart_car" route="D_B" depart="915.0" departLane="random" departSpeed="8" />
    <vehicle id="car_D_K_227" type="standart_car" route="D_K" depart="919.0" departLane="random" departSpeed="8" />
    <vehicle id="car_K_B_228" type="standart_car" route="K_B" depart="923.0" departLane="random" departSpeed="8" />
    <vehicle id="car_K_B_229" type="standart_car" route="K_B" depart="926.0" departLane="random" departSpeed="8" />
    <vehicle id="bus_B_D_230" type="bus" route="B_D" depart="927.0" departLane="random" departSpeed="5" />
    <vehicle id="bus_D_B_231" type="bus" route="D_B" depart="929.0" departLane="random" departSpeed="5" />
    <vehicle id="car_K_G_232" type="standart_car" route="K_G" depart="934.0" departLane="random" departSpeed="8" />
    <vehicle id="car_K_B_233" type="standart_car" route="K_B" depart="934.0" departLane="random" departSpeed="8" />
    <vehicle id="car_B_D_234" type="standart_car" route="B_D" depart="934.0" departLane="random" departSpeed="8" />
    <vehicle id="car_K_B_235" type="standart_car" route="K_B" depart="937.0" departLane="random" departSpeed="8" />
    <vehicle id="car_B_D_236" type="standart_car" route="B_D" depart="945.0" departLane="random" departSpeed="8" />
    <vehicle id="car_D_K_237" type="standart_car" route="D_K" depart="949.0" departLane="random" departSpeed="8" />
    <vehicle id="car_D_K_238" type="standart_car" route="D_K" depart="950.0" departLane="random" departSpeed="8" />
    <vehicle id="car_D_B_239" type="standart_car" route="D_B" depart="951.0" departLane="random" departSpeed="8" />
    <vehicle id="bus_D_K_240" type="bus" route="D_K" depart="953.0" departLane="random" departSpeed="5" />
    <vehicle id="car_D_K_241" type="standart_car" route="D_K" depart="954.0" departLane="random" departSpeed="8" />
    <vehicle id="car_D_K_242" type="standart_car" route="D_K" depart="955.0" departLane="random" departSpeed="8" />
    <vehicle id="car_B_D_243" type="standart_car" route="B_D" depart="958.0" departLane="random" departSpeed="8" />
    <vehicle id="car_K_G_244" type="standart_car" route="K_G" depart="960.0" departLane="random" departSpeed="8" />
    <vehicle id="car_K_B_245" type="standart_car" route="K_B" depart="962.0" departLane="random" departSpeed="8" />
    <vehicle id="car_B_D_246" type="standart_car" route="B_D" depart="963.0" departLane="random" departSpeed="8" />
    <vehicle id="car_K_G_247" type="standart_car" route="K_G" depart="964.0" departLane="random" departSpeed="8" />
    <vehicle id="car_D_K_248" type="standart_car" route="D_K" depart="964.0" departLane="random" departSpeed="8" />
    <vehicle id="car_D_K_249" type="standart_car" route="D_K" depart="967.0" departLane="random" departSpeed="8" />
    <vehicle id="car_K_G_250" type="standart_car" route="K_G" depart="968.0" departLane="random" departSpeed="8" />
    <vehicle id="car_D_B_251" type="standart_car" route="D_B" depart="968.0" departLane="random" departSpeed="8" />
    <vehicle id="car_B_D_252" type="standart_car" route="B_D" depart="974.0" departLane="random" departSpeed="8" />
    <vehicle id="car_K_B_253" type="standart_car" route="K_B" depart="975.0" departLane="random" departSpeed="8" />